/*---------------------------------------------------------------------------*\
| =========                 |                                                 |
| \\      /  F ield         | OpenFOAM: The Open Source CFD Toolbox           |
|  \\    /   O peration     | Version:  2406                                  |
|   \\  /    A nd           | Website:  www.openfoam.com                      |
|    \\/     M anipulation  |                                                 |
\*---------------------------------------------------------------------------*/
Build  : _630d60de3b-20240620 OPENFOAM=2406 version=v2406
Arch   : "LSB;label=32;scalar=64"
Exec   : checkMesh
Date   : Jun 25 2025
Time   : 11:29:23
Host   : WE49714
PID    : 69873
I/O    : uncollated
Case   : /Users/pere066/Projects/spikan/src/Test7_Cavity_Cylinder_2D/openfoam_case
nProcs : 1
trapFpe: Floating point exception trapping enabled (FOAM_SIGFPE).
fileModificationChecking : Monitoring run-time modified files using timeStampMaster (fileModificationSkew 5, maxFileModificationPolls 20)
allowSystemOperations : Allowing user-supplied system call operations

// * * * * * * * * * * * * * * * * * * * * * * * * * * * * * * * * * * * * * //
Create time

Create mesh for time = 0

Check mesh...

Time = 0

Mesh stats 
    points:           19692
    faces:            38556
    internal faces:   19452
    cells:            9612
    faces per cell:   6.03496
    boundary patches: 6
    point zones:      1
    face zones:       0
    cell zones:       0

Overall number of cells of each type:
    hexahedra:     9272
    prisms:        168
    wedges:        0
    pyramids:      0
    tet wedges:    0
    tetrahedra:    0
    polyhedra:     172
    Breakdown of polyhedra by number of faces:
        faces   number of cells
            6   52
            9   72
           12   48

Checking topology...
    Boundary definition OK.
 ***Total number of faces on empty patches is not divisible by the number of cells in the mesh. Hence this mesh is not 1D or 2D.
    Cell to face addressing OK.
    Point usage OK.
    Upper triangular ordering OK.
    Face vertices OK.
    Number of regions: 1 (OK).

Checking patch topology for multiply connected surfaces...
                   Patch    Faces   Points  Surface topology
                     lid      100      202  ok (non-closed singly connected)
                leftWall      100      202  ok (non-closed singly connected)
               rightWall      100      202  ok (non-closed singly connected)
              bottomWall      100      202  ok (non-closed singly connected)
            frontAndBack    18232    18952  ok (non-closed singly connected)
                cylinder      472      708  ok (non-closed singly connected)
                    ".*"    19104    19188      ok (closed singly connected)


Checking faceZone topology for multiply connected surfaces...
    No faceZones found.

Checking basic cellZone addressing...
    No cellZones found.

Checking basic pointZone addressing...
               PointZone  PointsBoundingBox
            frozenPoints       0(1e+150 1e+150 1e+150) (-1e+150 -1e+150 -1e+150)

Checking geometry...
    Overall domain bounding box (0 0 0) (1 1 0.1)
    Mesh has 2 geometric (non-empty/wedge) directions (1 1 0)
    Mesh has 2 solution (non-empty) directions (1 1 0)
 ***Number of edges not aligned with or perpendicular to non-empty directions: 26
  <<Writing 52 points on non-aligned edges to set nonAlignedEdges
    Boundary openness (3.31548e-17 -3.62772e-17 1.2209e-16) OK.
    Max cell openness = 2.16992e-16 OK.
    Max aspect ratio = 2.10021 OK.
    Minimum face area = 1.14461e-05. Maximum face area = 0.00102292.  Face area magnitudes OK.
    Min volume = 5.72303e-07. Max volume = 1.07276e-05.  Total volume = 0.0874354.  Cell volumes OK.
    Mesh non-orthogonality Max: 75.8718 average: 12.8544
   *Number of severely non-orthogonal (> 70 degrees) faces: 672.
    Non-orthogonality check OK.
  <<Writing 672 non-orthogonal faces to set nonOrthoFaces
    Face pyramids OK.
    Max skewness = 1.20701 OK.
    Coupled point location match (average 0) OK.

Failed 1 mesh checks.

End

