/*---------------------------------------------------------------------------*\
| =========                 |                                                 |
| \\      /  F ield         | OpenFOAM: The Open Source CFD Toolbox           |
|  \\    /   O peration     | Version:  2406                                  |
|   \\  /    A nd           | Website:  www.openfoam.com                      |
|    \\/     M anipulation  |                                                 |
\*---------------------------------------------------------------------------*/
Build  : _630d60de3b-20240620 OPENFOAM=2406 version=v2406
Arch   : "LSB;label=32;scalar=64"
Exec   : simpleFoam
Date   : Jun 25 2025
Time   : 11:29:23
Host   : WE49714
PID    : 69877
I/O    : uncollated
Case   : /Users/pere066/Projects/spikan/src/Test7_Cavity_Cylinder_2D/openfoam_case
nProcs : 1
trapFpe: Floating point exception trapping enabled (FOAM_SIGFPE).
fileModificationChecking : Monitoring run-time modified files using timeStampMaster (fileModificationSkew 5, maxFileModificationPolls 20)
allowSystemOperations : Allowing user-supplied system call operations

// * * * * * * * * * * * * * * * * * * * * * * * * * * * * * * * * * * * * * //
Create time

Create mesh for time = 0


SIMPLE: convergence criteria
    field p	 tolerance 0.0001
    field U	 tolerance 0.0001

Reading field p

Reading field U

Reading/calculating face flux field phi

Selecting incompressible transport model Newtonian
Selecting turbulence model type laminar
Selecting laminar stress model Stokes
No MRF models present

No finite volume options present

Starting time loop

Time = 1

smoothSolver:  Solving for Ux, Initial residual = 1, Final residual = 9.71929e-09, No Iterations 13
smoothSolver:  Solving for Uy, Initial residual = 1, Final residual = 9.10762e-09, No Iterations 13
GAMG:  Solving for p, Initial residual = 1, Final residual = 0.0279935, No Iterations 9
GAMG:  Solving for p, Initial residual = 0.0128812, Final residual = 0.000548868, No Iterations 7
GAMG:  Solving for p, Initial residual = 0.000556735, Final residual = 2.40116e-05, No Iterations 10
GAMG:  Solving for p, Initial residual = 2.40213e-05, Final residual = 1.06693e-06, No Iterations 10
time step continuity errors : sum local = 3.16079e-08, global = 1.98946e-18, cumulative = 1.98946e-18
ExecutionTime = 0.04 s  ClockTime = 0 s

Time = 2

smoothSolver:  Solving for Ux, Initial residual = 0.183756, Final residual = 4.0059e-09, No Iterations 13
smoothSolver:  Solving for Uy, Initial residual = 0.317412, Final residual = 7.00432e-09, No Iterations 14
GAMG:  Solving for p, Initial residual = 0.667229, Final residual = 0.0203338, No Iterations 9
GAMG:  Solving for p, Initial residual = 0.0115777, Final residual = 0.000487798, No Iterations 8
GAMG:  Solving for p, Initial residual = 0.000491402, Final residual = 2.42494e-05, No Iterations 10
GAMG:  Solving for p, Initial residual = 2.42497e-05, Final residual = 1.08816e-06, No Iterations 10
time step continuity errors : sum local = 4.9796e-08, global = -3.16523e-18, cumulative = -1.17577e-18
ExecutionTime = 0.07 s  ClockTime = 0 s

Time = 3

smoothSolver:  Solving for Ux, Initial residual = 0.111716, Final residual = 4.38452e-09, No Iterations 13
smoothSolver:  Solving for Uy, Initial residual = 0.238566, Final residual = 5.38277e-09, No Iterations 14
GAMG:  Solving for p, Initial residual = 0.460398, Final residual = 0.0176743, No Iterations 9
GAMG:  Solving for p, Initial residual = 0.0117611, Final residual = 0.00056529, No Iterations 12
GAMG:  Solving for p, Initial residual = 0.000571035, Final residual = 2.45921e-05, No Iterations 12
GAMG:  Solving for p, Initial residual = 2.45934e-05, Final residual = 1.10881e-06, No Iterations 11
time step continuity errors : sum local = 5.79075e-08, global = 1.09256e-17, cumulative = 9.74986e-18
ExecutionTime = 0.1 s  ClockTime = 0 s

Time = 4

smoothSolver:  Solving for Ux, Initial residual = 0.0869698, Final residual = 4.64026e-09, No Iterations 13
smoothSolver:  Solving for Uy, Initial residual = 0.17983, Final residual = 4.10617e-09, No Iterations 14
GAMG:  Solving for p, Initial residual = 0.367893, Final residual = 0.0151293, No Iterations 4
GAMG:  Solving for p, Initial residual = 0.0112373, Final residual = 0.00050804, No Iterations 10
GAMG:  Solving for p, Initial residual = 0.000512028, Final residual = 2.45597e-05, No Iterations 6
GAMG:  Solving for p, Initial residual = 2.45653e-05, Final residual = 1.16012e-06, No Iterations 10
time step continuity errors : sum local = 6.77463e-08, global = -1.90443e-18, cumulative = 7.84543e-18
ExecutionTime = 0.12 s  ClockTime = 0 s

Time = 5

smoothSolver:  Solving for Ux, Initial residual = 0.0704054, Final residual = 4.28145e-09, No Iterations 13
smoothSolver:  Solving for Uy, Initial residual = 0.132075, Final residual = 3.05948e-09, No Iterations 14
GAMG:  Solving for p, Initial residual = 0.332082, Final residual = 0.00719642, No Iterations 5
GAMG:  Solving for p, Initial residual = 0.00566022, Final residual = 0.000265062, No Iterations 10
GAMG:  Solving for p, Initial residual = 0.000265134, Final residual = 1.15979e-05, No Iterations 12
GAMG:  Solving for p, Initial residual = 1.15976e-05, Final residual = 8.54506e-07, No Iterations 9
time step continuity errors : sum local = 5.52742e-08, global = 6.29787e-18, cumulative = 1.41433e-17
ExecutionTime = 0.14 s  ClockTime = 0 s

Time = 6

smoothSolver:  Solving for Ux, Initial residual = 0.0542272, Final residual = 3.39787e-09, No Iterations 13
smoothSolver:  Solving for Uy, Initial residual = 0.0927022, Final residual = 7.61176e-09, No Iterations 13
GAMG:  Solving for p, Initial residual = 0.295643, Final residual = 0.0102805, No Iterations 5
GAMG:  Solving for p, Initial residual = 0.00834383, Final residual = 0.000350564, No Iterations 7
GAMG:  Solving for p, Initial residual = 0.000351382, Final residual = 1.35425e-05, No Iterations 8
GAMG:  Solving for p, Initial residual = 1.35432e-05, Final residual = 9.08969e-07, No Iterations 9
time step continuity errors : sum local = 6.55046e-08, global = 6.89227e-19, cumulative = 1.48325e-17
ExecutionTime = 0.16 s  ClockTime = 0 s

Time = 7

smoothSolver:  Solving for Ux, Initial residual = 0.0395653, Final residual = 8.3965e-09, No Iterations 12
smoothSolver:  Solving for Uy, Initial residual = 0.060745, Final residual = 5.07866e-09, No Iterations 13
GAMG:  Solving for p, Initial residual = 0.24565, Final residual = 0.00977286, No Iterations 5
GAMG:  Solving for p, Initial residual = 0.0081925, Final residual = 0.000349137, No Iterations 10
GAMG:  Solving for p, Initial residual = 0.000350628, Final residual = 1.70148e-05, No Iterations 10
GAMG:  Solving for p, Initial residual = 1.70136e-05, Final residual = 9.59407e-07, No Iterations 10
time step continuity errors : sum local = 7.34453e-08, global = -1.03575e-18, cumulative = 1.37968e-17
ExecutionTime = 0.19 s  ClockTime = 0 s

Time = 8

smoothSolver:  Solving for Ux, Initial residual = 0.0283483, Final residual = 5.5865e-09, No Iterations 12
smoothSolver:  Solving for Uy, Initial residual = 0.0372551, Final residual = 3.10665e-09, No Iterations 13
GAMG:  Solving for p, Initial residual = 0.184602, Final residual = 0.00718232, No Iterations 5
GAMG:  Solving for p, Initial residual = 0.00627092, Final residual = 0.000271145, No Iterations 10
GAMG:  Solving for p, Initial residual = 0.000272163, Final residual = 1.28714e-05, No Iterations 8
GAMG:  Solving for p, Initial residual = 1.28713e-05, Final residual = 8.58739e-07, No Iterations 9
time step continuity errors : sum local = 6.8689e-08, global = 7.04765e-18, cumulative = 2.08444e-17
ExecutionTime = 0.21 s  ClockTime = 0 s

Time = 9

smoothSolver:  Solving for Ux, Initial residual = 0.0213095, Final residual = 3.92278e-09, No Iterations 12
smoothSolver:  Solving for Uy, Initial residual = 0.0219505, Final residual = 6.16126e-09, No Iterations 12
GAMG:  Solving for p, Initial residual = 0.128583, Final residual = 0.00495319, No Iterations 5
GAMG:  Solving for p, Initial residual = 0.00453352, Final residual = 0.000177496, No Iterations 7
GAMG:  Solving for p, Initial residual = 0.000177698, Final residual = 8.41197e-06, No Iterations 12
GAMG:  Solving for p, Initial residual = 8.41161e-06, Final residual = 6.70394e-07, No Iterations 9
time step continuity errors : sum local = 5.18317e-08, global = -4.40688e-18, cumulative = 1.64375e-17
ExecutionTime = 0.23 s  ClockTime = 0 s

Time = 10

smoothSolver:  Solving for Ux, Initial residual = 0.0176848, Final residual = 3.22718e-09, No Iterations 12
smoothSolver:  Solving for Uy, Initial residual = 0.0146131, Final residual = 3.79042e-09, No Iterations 12
GAMG:  Solving for p, Initial residual = 0.0940681, Final residual = 0.00436388, No Iterations 3
GAMG:  Solving for p, Initial residual = 0.00413165, Final residual = 0.000189565, No Iterations 9
GAMG:  Solving for p, Initial residual = 0.000189742, Final residual = 8.88152e-06, No Iterations 8
GAMG:  Solving for p, Initial residual = 8.88145e-06, Final residual = 9.58174e-07, No Iterations 7
time step continuity errors : sum local = 7.33347e-08, global = -1.00266e-17, cumulative = 6.41098e-18
ExecutionTime = 0.25 s  ClockTime = 0 s

Time = 11

smoothSolver:  Solving for Ux, Initial residual = 0.0157131, Final residual = 2.99735e-09, No Iterations 12
smoothSolver:  Solving for Uy, Initial residual = 0.0123629, Final residual = 3.32514e-09, No Iterations 12
GAMG:  Solving for p, Initial residual = 0.0844176, Final residual = 0.00290795, No Iterations 6
GAMG:  Solving for p, Initial residual = 0.00280943, Final residual = 0.000105727, No Iterations 8
GAMG:  Solving for p, Initial residual = 0.00010576, Final residual = 4.37994e-06, No Iterations 14
GAMG:  Solving for p, Initial residual = 4.37996e-06, Final residual = 9.63136e-07, No Iterations 6
time step continuity errors : sum local = 7.20808e-08, global = -2.27605e-18, cumulative = 4.13493e-18
ExecutionTime = 0.27 s  ClockTime = 0 s

Time = 12

smoothSolver:  Solving for Ux, Initial residual = 0.0146613, Final residual = 3.01193e-09, No Iterations 12
smoothSolver:  Solving for Uy, Initial residual = 0.0133028, Final residual = 4.06437e-09, No Iterations 12
GAMG:  Solving for p, Initial residual = 0.0789409, Final residual = 0.00231176, No Iterations 6
GAMG:  Solving for p, Initial residual = 0.00225146, Final residual = 9.31648e-05, No Iterations 10
GAMG:  Solving for p, Initial residual = 9.32527e-05, Final residual = 3.03746e-06, No Iterations 10
GAMG:  Solving for p, Initial residual = 3.03746e-06, Final residual = 9.52075e-07, No Iterations 5
time step continuity errors : sum local = 7.07046e-08, global = -8.59183e-20, cumulative = 4.04901e-18
ExecutionTime = 0.29 s  ClockTime = 0 s

Time = 13

smoothSolver:  Solving for Ux, Initial residual = 0.014445, Final residual = 3.181e-09, No Iterations 12
smoothSolver:  Solving for Uy, Initial residual = 0.0166127, Final residual = 5.21404e-09, No Iterations 12
GAMG:  Solving for p, Initial residual = 0.0699623, Final residual = 0.00252444, No Iterations 6
GAMG:  Solving for p, Initial residual = 0.00246305, Final residual = 0.000103228, No Iterations 9
GAMG:  Solving for p, Initial residual = 0.000103274, Final residual = 4.86302e-06, No Iterations 14
GAMG:  Solving for p, Initial residual = 4.86296e-06, Final residual = 9.52758e-07, No Iterations 6
time step continuity errors : sum local = 7.32737e-08, global = 3.77655e-18, cumulative = 7.82556e-18
ExecutionTime = 0.32 s  ClockTime = 0 s

Time = 14

smoothSolver:  Solving for Ux, Initial residual = 0.0143511, Final residual = 3.33362e-09, No Iterations 12
smoothSolver:  Solving for Uy, Initial residual = 0.0197157, Final residual = 6.11091e-09, No Iterations 12
GAMG:  Solving for p, Initial residual = 0.0587853, Final residual = 0.00149662, No Iterations 5
GAMG:  Solving for p, Initial residual = 0.00145628, Final residual = 5.47102e-05, No Iterations 6
GAMG:  Solving for p, Initial residual = 5.47241e-05, Final residual = 2.26229e-06, No Iterations 14
GAMG:  Solving for p, Initial residual = 2.26229e-06, Final residual = 9.31631e-07, No Iterations 5
time step continuity errors : sum local = 7.3144e-08, global = -7.34316e-18, cumulative = 4.82405e-19
ExecutionTime = 0.34 s  ClockTime = 0 s

Time = 15

smoothSolver:  Solving for Ux, Initial residual = 0.013926, Final residual = 3.35224e-09, No Iterations 12
smoothSolver:  Solving for Uy, Initial residual = 0.0208841, Final residual = 6.44205e-09, No Iterations 12
GAMG:  Solving for p, Initial residual = 0.0537631, Final residual = 0.00164255, No Iterations 3
GAMG:  Solving for p, Initial residual = 0.00159241, Final residual = 6.83263e-05, No Iterations 6
GAMG:  Solving for p, Initial residual = 6.83207e-05, Final residual = 3.37112e-06, No Iterations 9
GAMG:  Solving for p, Initial residual = 3.37109e-06, Final residual = 9.03481e-07, No Iterations 4
time step continuity errors : sum local = 7.23434e-08, global = 1.27849e-18, cumulative = 1.7609e-18
ExecutionTime = 0.36 s  ClockTime = 0 s

Time = 16

smoothSolver:  Solving for Ux, Initial residual = 0.0130898, Final residual = 3.21166e-09, No Iterations 12
smoothSolver:  Solving for Uy, Initial residual = 0.0201168, Final residual = 6.21571e-09, No Iterations 12
GAMG:  Solving for p, Initial residual = 0.052835, Final residual = 0.00259695, No Iterations 4
GAMG:  Solving for p, Initial residual = 0.00250819, Final residual = 9.59734e-05, No Iterations 8
GAMG:  Solving for p, Initial residual = 9.60237e-05, Final residual = 3.97621e-06, No Iterations 12
GAMG:  Solving for p, Initial residual = 3.9761e-06, Final residual = 9.40337e-07, No Iterations 6
time step continuity errors : sum local = 7.55783e-08, global = -1.12351e-17, cumulative = -9.47421e-18
ExecutionTime = 0.38 s  ClockTime = 1 s

Time = 17

smoothSolver:  Solving for Ux, Initial residual = 0.0119828, Final residual = 2.95559e-09, No Iterations 12
smoothSolver:  Solving for Uy, Initial residual = 0.0180622, Final residual = 5.61509e-09, No Iterations 12
GAMG:  Solving for p, Initial residual = 0.0511317, Final residual = 0.00191857, No Iterations 6
GAMG:  Solving for p, Initial residual = 0.00185136, Final residual = 8.73723e-05, No Iterations 6
GAMG:  Solving for p, Initial residual = 8.73943e-05, Final residual = 3.75443e-06, No Iterations 13
GAMG:  Solving for p, Initial residual = 3.7544e-06, Final residual = 9.65996e-07, No Iterations 4
time step continuity errors : sum local = 8.08931e-08, global = -2.42832e-18, cumulative = -1.19025e-17
ExecutionTime = 0.4 s  ClockTime = 1 s

Time = 18

smoothSolver:  Solving for Ux, Initial residual = 0.0108414, Final residual = 9.38715e-09, No Iterations 11
smoothSolver:  Solving for Uy, Initial residual = 0.0155299, Final residual = 4.86924e-09, No Iterations 12
GAMG:  Solving for p, Initial residual = 0.0466065, Final residual = 0.0019246, No Iterations 5
GAMG:  Solving for p, Initial residual = 0.00186083, Final residual = 7.24677e-05, No Iterations 7
GAMG:  Solving for p, Initial residual = 7.24589e-05, Final residual = 3.35385e-06, No Iterations 9
GAMG:  Solving for p, Initial residual = 3.35381e-06, Final residual = 8.88079e-07, No Iterations 5
time step continuity errors : sum local = 7.46909e-08, global = -9.58056e-18, cumulative = -2.14831e-17
ExecutionTime = 0.42 s  ClockTime = 1 s

Time = 19

smoothSolver:  Solving for Ux, Initial residual = 0.00981781, Final residual = 8.45563e-09, No Iterations 11
smoothSolver:  Solving for Uy, Initial residual = 0.0132342, Final residual = 4.17144e-09, No Iterations 12
GAMG:  Solving for p, Initial residual = 0.0400313, Final residual = 0.00145352, No Iterations 5
GAMG:  Solving for p, Initial residual = 0.00141056, Final residual = 4.45662e-05, No Iterations 6
GAMG:  Solving for p, Initial residual = 4.45557e-05, Final residual = 2.0285e-06, No Iterations 7
GAMG:  Solving for p, Initial residual = 2.0285e-06, Final residual = 8.65775e-07, No Iterations 3
time step continuity errors : sum local = 7.39444e-08, global = 1.03502e-17, cumulative = -1.11329e-17
ExecutionTime = 0.43 s  ClockTime = 1 s

Time = 20

smoothSolver:  Solving for Ux, Initial residual = 0.00902863, Final residual = 7.75584e-09, No Iterations 11
smoothSolver:  Solving for Uy, Initial residual = 0.0114929, Final residual = 3.63975e-09, No Iterations 12
GAMG:  Solving for p, Initial residual = 0.0334971, Final residual = 0.00103729, No Iterations 4
GAMG:  Solving for p, Initial residual = 0.00101076, Final residual = 4.74149e-05, No Iterations 5
GAMG:  Solving for p, Initial residual = 4.74086e-05, Final residual = 1.97391e-06, No Iterations 12
GAMG:  Solving for p, Initial residual = 1.97391e-06, Final residual = 9.45532e-07, No Iterations 2
time step continuity errors : sum local = 8.23004e-08, global = -1.26396e-17, cumulative = -2.37724e-17
ExecutionTime = 0.45 s  ClockTime = 1 s

Time = 21

smoothSolver:  Solving for Ux, Initial residual = 0.0084484, Final residual = 7.28366e-09, No Iterations 11
smoothSolver:  Solving for Uy, Initial residual = 0.0103986, Final residual = 3.31036e-09, No Iterations 12
GAMG:  Solving for p, Initial residual = 0.029418, Final residual = 0.000763822, No Iterations 3
GAMG:  Solving for p, Initial residual = 0.000746962, Final residual = 2.73857e-05, No Iterations 7
GAMG:  Solving for p, Initial residual = 2.7387e-05, Final residual = 1.2601e-06, No Iterations 9
GAMG:  Solving for p, Initial residual = 1.2601e-06, Final residual = 7.78867e-07, No Iterations 2
time step continuity errors : sum local = 6.74182e-08, global = 2.8533e-19, cumulative = -2.34871e-17
ExecutionTime = 0.48 s  ClockTime = 1 s

Time = 22

smoothSolver:  Solving for Ux, Initial residual = 0.00802371, Final residual = 6.99235e-09, No Iterations 11
smoothSolver:  Solving for Uy, Initial residual = 0.00986037, Final residual = 3.15531e-09, No Iterations 12
GAMG:  Solving for p, Initial residual = 0.0272865, Final residual = 0.000735077, No Iterations 3
GAMG:  Solving for p, Initial residual = 0.000720783, Final residual = 2.28687e-05, No Iterations 10
GAMG:  Solving for p, Initial residual = 2.28723e-05, Final residual = 9.55965e-07, No Iterations 9
GAMG:  Solving for p, Initial residual = 9.55967e-07, Final residual = 9.55967e-07, No Iterations 0
time step continuity errors : sum local = 8.46275e-08, global = 1.66911e-18, cumulative = -2.1818e-17
ExecutionTime = 0.5 s  ClockTime = 1 s

Time = 23

smoothSolver:  Solving for Ux, Initial residual = 0.00770896, Final residual = 6.80894e-09, No Iterations 11
smoothSolver:  Solving for Uy, Initial residual = 0.00970462, Final residual = 3.11173e-09, No Iterations 12
GAMG:  Solving for p, Initial residual = 0.0258103, Final residual = 0.000847016, No Iterations 3
GAMG:  Solving for p, Initial residual = 0.000832117, Final residual = 3.22458e-05, No Iterations 5
GAMG:  Solving for p, Initial residual = 3.22496e-05, Final residual = 1.2105e-06, No Iterations 9
GAMG:  Solving for p, Initial residual = 1.21051e-06, Final residual = 5.82458e-07, No Iterations 1
time step continuity errors : sum local = 5.11515e-08, global = -1.73717e-18, cumulative = -2.35552e-17
ExecutionTime = 0.51 s  ClockTime = 1 s

Time = 24

smoothSolver:  Solving for Ux, Initial residual = 0.00744956, Final residual = 6.66531e-09, No Iterations 11
smoothSolver:  Solving for Uy, Initial residual = 0.00971561, Final residual = 3.1102e-09, No Iterations 12
GAMG:  Solving for p, Initial residual = 0.0242937, Final residual = 0.0008045, No Iterations 3
GAMG:  Solving for p, Initial residual = 0.000791091, Final residual = 2.92761e-05, No Iterations 8
GAMG:  Solving for p, Initial residual = 2.92816e-05, Final residual = 1.30447e-06, No Iterations 8
GAMG:  Solving for p, Initial residual = 1.30447e-06, Final residual = 7.35878e-07, No Iterations 2
time step continuity errors : sum local = 6.63877e-08, global = 9.18151e-19, cumulative = -2.2637e-17
ExecutionTime = 0.53 s  ClockTime = 1 s

Time = 25

smoothSolver:  Solving for Ux, Initial residual = 0.00719691, Final residual = 6.51026e-09, No Iterations 11
smoothSolver:  Solving for Uy, Initial residual = 0.00968612, Final residual = 3.0963e-09, No Iterations 12
GAMG:  Solving for p, Initial residual = 0.0229544, Final residual = 0.00110029, No Iterations 2
GAMG:  Solving for p, Initial residual = 0.00108279, Final residual = 5.21176e-05, No Iterations 6
GAMG:  Solving for p, Initial residual = 5.21118e-05, Final residual = 2.4722e-06, No Iterations 10
GAMG:  Solving for p, Initial residual = 2.47219e-06, Final residual = 9.39548e-07, No Iterations 3
time step continuity errors : sum local = 8.50093e-08, global = 5.80161e-18, cumulative = -1.68354e-17
ExecutionTime = 0.55 s  ClockTime = 1 s

Time = 26

smoothSolver:  Solving for Ux, Initial residual = 0.00692762, Final residual = 6.31776e-09, No Iterations 11
smoothSolver:  Solving for Uy, Initial residual = 0.00951671, Final residual = 3.041e-09, No Iterations 12
GAMG:  Solving for p, Initial residual = 0.0221655, Final residual = 0.000569642, No Iterations 3
GAMG:  Solving for p, Initial residual = 0.000560638, Final residual = 2.36126e-05, No Iterations 7
GAMG:  Solving for p, Initial residual = 2.36134e-05, Final residual = 9.14363e-07, No Iterations 9
GAMG:  Solving for p, Initial residual = 9.14363e-07, Final residual = 9.14363e-07, No Iterations 0
time step continuity errors : sum local = 8.36844e-08, global = 4.18841e-18, cumulative = -1.2647e-17
ExecutionTime = 0.56 s  ClockTime = 1 s

Time = 27

smoothSolver:  Solving for Ux, Initial residual = 0.00663768, Final residual = 6.08663e-09, No Iterations 11
smoothSolver:  Solving for Uy, Initial residual = 0.00919458, Final residual = 2.94043e-09, No Iterations 12
GAMG:  Solving for p, Initial residual = 0.0215669, Final residual = 0.000760732, No Iterations 3
GAMG:  Solving for p, Initial residual = 0.000749068, Final residual = 3.03616e-05, No Iterations 8
GAMG:  Solving for p, Initial residual = 3.03569e-05, Final residual = 1.12699e-06, No Iterations 12
GAMG:  Solving for p, Initial residual = 1.12698e-06, Final residual = 9.43499e-07, No Iterations 1
time step continuity errors : sum local = 8.74588e-08, global = 4.30772e-18, cumulative = -8.33927e-18
ExecutionTime = 0.58 s  ClockTime = 1 s

Time = 28

smoothSolver:  Solving for Ux, Initial residual = 0.00633844, Final residual = 5.83251e-09, No Iterations 11
smoothSolver:  Solving for Uy, Initial residual = 0.00876578, Final residual = 9.75997e-09, No Iterations 11
GAMG:  Solving for p, Initial residual = 0.0207535, Final residual = 0.00083415, No Iterations 3
GAMG:  Solving for p, Initial residual = 0.000821708, Final residual = 3.6337e-05, No Iterations 7
GAMG:  Solving for p, Initial residual = 3.63317e-05, Final residual = 1.53421e-06, No Iterations 9
GAMG:  Solving for p, Initial residual = 1.5342e-06, Final residual = 8.03338e-07, No Iterations 2
time step continuity errors : sum local = 7.39491e-08, global = -3.54303e-18, cumulative = -1.18823e-17
ExecutionTime = 0.6 s  ClockTime = 1 s

Time = 29

smoothSolver:  Solving for Ux, Initial residual = 0.00604596, Final residual = 5.57728e-09, No Iterations 11
smoothSolver:  Solving for Uy, Initial residual = 0.00829949, Final residual = 9.25894e-09, No Iterations 11
GAMG:  Solving for p, Initial residual = 0.0196537, Final residual = 0.000808575, No Iterations 3
GAMG:  Solving for p, Initial residual = 0.000797012, Final residual = 3.81916e-05, No Iterations 7
GAMG:  Solving for p, Initial residual = 3.81857e-05, Final residual = 1.26305e-06, No Iterations 16
GAMG:  Solving for p, Initial residual = 1.26305e-06, Final residual = 9.45748e-07, No Iterations 1
time step continuity errors : sum local = 8.81647e-08, global = 1.60075e-17, cumulative = 4.1252e-18
ExecutionTime = 0.62 s  ClockTime = 1 s

Time = 30

smoothSolver:  Solving for Ux, Initial residual = 0.005775, Final residual = 5.34067e-09, No Iterations 11
smoothSolver:  Solving for Uy, Initial residual = 0.00785828, Final residual = 8.78318e-09, No Iterations 11
GAMG:  Solving for p, Initial residual = 0.0184023, Final residual = 0.000707579, No Iterations 3
GAMG:  Solving for p, Initial residual = 0.000698001, Final residual = 2.39045e-05, No Iterations 7
GAMG:  Solving for p, Initial residual = 2.3901e-05, Final residual = 1.11949e-06, No Iterations 10
GAMG:  Solving for p, Initial residual = 1.11948e-06, Final residual = 9.3698e-07, No Iterations 1
time step continuity errors : sum local = 8.89312e-08, global = 1.04621e-17, cumulative = 1.45873e-17
ExecutionTime = 0.63 s  ClockTime = 1 s

Time = 31

smoothSolver:  Solving for Ux, Initial residual = 0.00553391, Final residual = 5.13254e-09, No Iterations 11
smoothSolver:  Solving for Uy, Initial residual = 0.00748149, Final residual = 8.37457e-09, No Iterations 11
GAMG:  Solving for p, Initial residual = 0.0172862, Final residual = 0.000591184, No Iterations 3
GAMG:  Solving for p, Initial residual = 0.00058366, Final residual = 2.61712e-05, No Iterations 9
GAMG:  Solving for p, Initial residual = 2.61668e-05, Final residual = 1.12453e-06, No Iterations 12
GAMG:  Solving for p, Initial residual = 1.12452e-06, Final residual = 9.62233e-07, No Iterations 1
time step continuity errors : sum local = 9.28911e-08, global = -6.35637e-18, cumulative = 8.23097e-18
ExecutionTime = 0.65 s  ClockTime = 1 s

Time = 32

smoothSolver:  Solving for Ux, Initial residual = 0.00532392, Final residual = 4.95364e-09, No Iterations 11
smoothSolver:  Solving for Uy, Initial residual = 0.00718127, Final residual = 8.04708e-09, No Iterations 11
GAMG:  Solving for p, Initial residual = 0.016412, Final residual = 0.000495852, No Iterations 3
GAMG:  Solving for p, Initial residual = 0.00048992, Final residual = 2.24687e-05, No Iterations 6
GAMG:  Solving for p, Initial residual = 2.2464e-05, Final residual = 1.0928e-06, No Iterations 10
GAMG:  Solving for p, Initial residual = 1.09279e-06, Final residual = 9.29172e-07, No Iterations 1
time step continuity errors : sum local = 8.97023e-08, global = -1.44541e-18, cumulative = 6.78556e-18
ExecutionTime = 0.67 s  ClockTime = 1 s

Time = 33

smoothSolver:  Solving for Ux, Initial residual = 0.00513834, Final residual = 4.79911e-09, No Iterations 11
smoothSolver:  Solving for Uy, Initial residual = 0.00694883, Final residual = 7.79155e-09, No Iterations 11
GAMG:  Solving for p, Initial residual = 0.0156982, Final residual = 0.000396693, No Iterations 3
GAMG:  Solving for p, Initial residual = 0.000392116, Final residual = 1.88078e-05, No Iterations 10
GAMG:  Solving for p, Initial residual = 1.88075e-05, Final residual = 7.83215e-07, No Iterations 13
GAMG:  Solving for p, Initial residual = 7.83218e-07, Final residual = 7.83218e-07, No Iterations 0
time step continuity errors : sum local = 7.54034e-08, global = -8.15086e-18, cumulative = -1.3653e-18
ExecutionTime = 0.69 s  ClockTime = 1 s

Time = 34

smoothSolver:  Solving for Ux, Initial residual = 0.00496955, Final residual = 4.66206e-09, No Iterations 11
smoothSolver:  Solving for Uy, Initial residual = 0.0067632, Final residual = 7.58552e-09, No Iterations 11
GAMG:  Solving for p, Initial residual = 0.0150863, Final residual = 0.000362775, No Iterations 3
GAMG:  Solving for p, Initial residual = 0.000358767, Final residual = 1.25514e-05, No Iterations 7
GAMG:  Solving for p, Initial residual = 1.25512e-05, Final residual = 8.11648e-07, No Iterations 10
GAMG:  Solving for p, Initial residual = 8.11645e-07, Final residual = 8.11645e-07, No Iterations 0
time step continuity errors : sum local = 7.8708e-08, global = -6.19957e-18, cumulative = -7.56486e-18
ExecutionTime = 0.7 s  ClockTime = 1 s

Time = 35

smoothSolver:  Solving for Ux, Initial residual = 0.00481126, Final residual = 4.53403e-09, No Iterations 11
smoothSolver:  Solving for Uy, Initial residual = 0.0066004, Final residual = 7.40396e-09, No Iterations 11
GAMG:  Solving for p, Initial residual = 0.0145507, Final residual = 0.000362319, No Iterations 3
GAMG:  Solving for p, Initial residual = 0.00035845, Final residual = 1.38889e-05, No Iterations 10
GAMG:  Solving for p, Initial residual = 1.38887e-05, Final residual = 9.50962e-07, No Iterations 7
GAMG:  Solving for p, Initial residual = 9.50961e-07, Final residual = 9.50961e-07, No Iterations 0
time step continuity errors : sum local = 9.36842e-08, global = 8.85435e-18, cumulative = 1.28949e-18
ExecutionTime = 0.72 s  ClockTime = 1 s

Time = 36

smoothSolver:  Solving for Ux, Initial residual = 0.00465905, Final residual = 4.40944e-09, No Iterations 11
smoothSolver:  Solving for Uy, Initial residual = 0.00644167, Final residual = 7.22716e-09, No Iterations 11
GAMG:  Solving for p, Initial residual = 0.0140788, Final residual = 0.000375313, No Iterations 3
GAMG:  Solving for p, Initial residual = 0.000371418, Final residual = 1.40214e-05, No Iterations 6
GAMG:  Solving for p, Initial residual = 1.40214e-05, Final residual = 7.86465e-07, No Iterations 10
GAMG:  Solving for p, Initial residual = 7.86464e-07, Final residual = 7.86464e-07, No Iterations 0
time step continuity errors : sum local = 7.64635e-08, global = -8.12706e-19, cumulative = 4.76782e-19
ExecutionTime = 0.73 s  ClockTime = 1 s

Time = 37

smoothSolver:  Solving for Ux, Initial residual = 0.00451148, Final residual = 4.28517e-09, No Iterations 11
smoothSolver:  Solving for Uy, Initial residual = 0.00627664, Final residual = 7.04418e-09, No Iterations 11
GAMG:  Solving for p, Initial residual = 0.0136712, Final residual = 0.000427515, No Iterations 3
GAMG:  Solving for p, Initial residual = 0.000423276, Final residual = 1.94104e-05, No Iterations 6
GAMG:  Solving for p, Initial residual = 1.94069e-05, Final residual = 8.71015e-07, No Iterations 10
GAMG:  Solving for p, Initial residual = 8.71015e-07, Final residual = 8.71015e-07, No Iterations 0
time step continuity errors : sum local = 8.50183e-08, global = -1.06921e-17, cumulative = -1.02153e-17
ExecutionTime = 0.75 s  ClockTime = 1 s

Time = 38

smoothSolver:  Solving for Ux, Initial residual = 0.00436782, Final residual = 4.16144e-09, No Iterations 11
smoothSolver:  Solving for Uy, Initial residual = 0.0061035, Final residual = 6.85292e-09, No Iterations 11
GAMG:  Solving for p, Initial residual = 0.0132827, Final residual = 0.000428262, No Iterations 3
GAMG:  Solving for p, Initial residual = 0.00042413, Final residual = 2.07387e-05, No Iterations 11
GAMG:  Solving for p, Initial residual = 2.07354e-05, Final residual = 8.76537e-07, No Iterations 9
GAMG:  Solving for p, Initial residual = 8.76538e-07, Final residual = 8.76538e-07, No Iterations 0
time step continuity errors : sum local = 8.65232e-08, global = 1.11256e-17, cumulative = 9.10309e-19
ExecutionTime = 0.77 s  ClockTime = 1 s

Time = 39

smoothSolver:  Solving for Ux, Initial residual = 0.00422905, Final residual = 4.0403e-09, No Iterations 11
smoothSolver:  Solving for Uy, Initial residual = 0.00592621, Final residual = 6.65745e-09, No Iterations 11
GAMG:  Solving for p, Initial residual = 0.0128853, Final residual = 0.000423902, No Iterations 3
GAMG:  Solving for p, Initial residual = 0.000419932, Final residual = 1.89183e-05, No Iterations 11
GAMG:  Solving for p, Initial residual = 1.89155e-05, Final residual = 9.08856e-07, No Iterations 12
GAMG:  Solving for p, Initial residual = 9.08861e-07, Final residual = 9.08861e-07, No Iterations 0
time step continuity errors : sum local = 9.22722e-08, global = 3.28323e-18, cumulative = 4.19354e-18
ExecutionTime = 0.79 s  ClockTime = 1 s

Time = 40

smoothSolver:  Solving for Ux, Initial residual = 0.0040968, Final residual = 3.92354e-09, No Iterations 11
smoothSolver:  Solving for Uy, Initial residual = 0.00575125, Final residual = 6.46457e-09, No Iterations 11
GAMG:  Solving for p, Initial residual = 0.012483, Final residual = 0.000411358, No Iterations 3
GAMG:  Solving for p, Initial residual = 0.000407626, Final residual = 1.90927e-05, No Iterations 11
GAMG:  Solving for p, Initial residual = 1.90899e-05, Final residual = 8.74384e-07, No Iterations 12
GAMG:  Solving for p, Initial residual = 8.74388e-07, Final residual = 8.74388e-07, No Iterations 0
time step continuity errors : sum local = 8.86037e-08, global = 3.63233e-18, cumulative = 7.82587e-18
ExecutionTime = 0.8 s  ClockTime = 1 s

Time = 41

smoothSolver:  Solving for Ux, Initial residual = 0.00397267, Final residual = 3.81262e-09, No Iterations 11
smoothSolver:  Solving for Uy, Initial residual = 0.00558464, Final residual = 6.28061e-09, No Iterations 11
GAMG:  Solving for p, Initial residual = 0.0120897, Final residual = 0.000393694, No Iterations 3
GAMG:  Solving for p, Initial residual = 0.000390238, Final residual = 1.80508e-05, No Iterations 11
GAMG:  Solving for p, Initial residual = 1.80482e-05, Final residual = 9.40185e-07, No Iterations 9
GAMG:  Solving for p, Initial residual = 9.40186e-07, Final residual = 9.40186e-07, No Iterations 0
time step continuity errors : sum local = 9.4937e-08, global = 8.14513e-18, cumulative = 1.5971e-17
ExecutionTime = 0.82 s  ClockTime = 1 s

Time = 42

smoothSolver:  Solving for Ux, Initial residual = 0.0038557, Final residual = 3.70821e-09, No Iterations 11
smoothSolver:  Solving for Uy, Initial residual = 0.00543008, Final residual = 6.10967e-09, No Iterations 11
GAMG:  Solving for p, Initial residual = 0.0117214, Final residual = 0.000376214, No Iterations 3
GAMG:  Solving for p, Initial residual = 0.000373017, Final residual = 1.69763e-05, No Iterations 6
GAMG:  Solving for p, Initial residual = 1.69737e-05, Final residual = 7.02243e-07, No Iterations 12
GAMG:  Solving for p, Initial residual = 7.02244e-07, Final residual = 7.02244e-07, No Iterations 0
time step continuity errors : sum local = 7.03211e-08, global = -1.40681e-17, cumulative = 1.90286e-18
ExecutionTime = 0.84 s  ClockTime = 1 s

Time = 43

smoothSolver:  Solving for Ux, Initial residual = 0.003745, Final residual = 3.61039e-09, No Iterations 11
smoothSolver:  Solving for Uy, Initial residual = 0.00528866, Final residual = 5.95283e-09, No Iterations 11
GAMG:  Solving for p, Initial residual = 0.0113839, Final residual = 0.000311373, No Iterations 3
GAMG:  Solving for p, Initial residual = 0.000308759, Final residual = 1.22404e-05, No Iterations 6
GAMG:  Solving for p, Initial residual = 1.22405e-05, Final residual = 8.25923e-07, No Iterations 10
GAMG:  Solving for p, Initial residual = 8.25925e-07, Final residual = 8.25925e-07, No Iterations 0
time step continuity errors : sum local = 8.4327e-08, global = -7.02766e-18, cumulative = -5.1248e-18
ExecutionTime = 0.85 s  ClockTime = 1 s

Time = 44

smoothSolver:  Solving for Ux, Initial residual = 0.00364033, Final residual = 3.51788e-09, No Iterations 11
smoothSolver:  Solving for Uy, Initial residual = 0.00515913, Final residual = 5.80873e-09, No Iterations 11
GAMG:  Solving for p, Initial residual = 0.0110769, Final residual = 0.000305191, No Iterations 3
GAMG:  Solving for p, Initial residual = 0.000302707, Final residual = 1.03702e-05, No Iterations 6
GAMG:  Solving for p, Initial residual = 1.03702e-05, Final residual = 7.61585e-07, No Iterations 10
GAMG:  Solving for p, Initial residual = 7.61583e-07, Final residual = 7.61583e-07, No Iterations 0
time step continuity errors : sum local = 7.86191e-08, global = -9.23196e-18, cumulative = -1.43568e-17
ExecutionTime = 0.87 s  ClockTime = 1 s

Time = 45

smoothSolver:  Solving for Ux, Initial residual = 0.00354101, Final residual = 3.43004e-09, No Iterations 11
smoothSolver:  Solving for Uy, Initial residual = 0.00503893, Final residual = 5.67473e-09, No Iterations 11
GAMG:  Solving for p, Initial residual = 0.010793, Final residual = 0.000298603, No Iterations 3
GAMG:  Solving for p, Initial residual = 0.000296237, Final residual = 1.07294e-05, No Iterations 6
GAMG:  Solving for p, Initial residual = 1.07294e-05, Final residual = 9.07775e-07, No Iterations 10
GAMG:  Solving for p, Initial residual = 9.07777e-07, Final residual = 9.07777e-07, No Iterations 0
time step continuity errors : sum local = 9.20135e-08, global = -8.3565e-18, cumulative = -2.27133e-17
ExecutionTime = 0.89 s  ClockTime = 1 s

Time = 46

smoothSolver:  Solving for Ux, Initial residual = 0.00344617, Final residual = 3.34617e-09, No Iterations 11
smoothSolver:  Solving for Uy, Initial residual = 0.00492521, Final residual = 5.54785e-09, No Iterations 11
GAMG:  Solving for p, Initial residual = 0.0105309, Final residual = 0.000292561, No Iterations 3
GAMG:  Solving for p, Initial residual = 0.000290298, Final residual = 1.00788e-05, No Iterations 6
GAMG:  Solving for p, Initial residual = 1.00788e-05, Final residual = 6.76256e-07, No Iterations 9
GAMG:  Solving for p, Initial residual = 6.76255e-07, Final residual = 6.76255e-07, No Iterations 0
time step continuity errors : sum local = 7.00637e-08, global = 4.80304e-18, cumulative = -1.79102e-17
ExecutionTime = 0.9 s  ClockTime = 1 s

Time = 47

smoothSolver:  Solving for Ux, Initial residual = 0.00335498, Final residual = 3.26517e-09, No Iterations 11
smoothSolver:  Solving for Uy, Initial residual = 0.00481579, Final residual = 5.42573e-09, No Iterations 11
GAMG:  Solving for p, Initial residual = 0.0102879, Final residual = 0.000286811, No Iterations 3
GAMG:  Solving for p, Initial residual = 0.000284639, Final residual = 9.7843e-06, No Iterations 6
GAMG:  Solving for p, Initial residual = 9.78434e-06, Final residual = 7.13266e-07, No Iterations 11
GAMG:  Solving for p, Initial residual = 7.13265e-07, Final residual = 7.13265e-07, No Iterations 0
time step continuity errors : sum local = 7.30957e-08, global = -1.33317e-17, cumulative = -3.12419e-17
ExecutionTime = 0.92 s  ClockTime = 1 s

Time = 48

smoothSolver:  Solving for Ux, Initial residual = 0.0032671, Final residual = 3.18693e-09, No Iterations 11
smoothSolver:  Solving for Uy, Initial residual = 0.00470935, Final residual = 5.30693e-09, No Iterations 11
GAMG:  Solving for p, Initial residual = 0.0100592, Final residual = 0.000281008, No Iterations 3
GAMG:  Solving for p, Initial residual = 0.000278922, Final residual = 1.08341e-05, No Iterations 6
GAMG:  Solving for p, Initial residual = 1.08341e-05, Final residual = 6.13834e-07, No Iterations 10
GAMG:  Solving for p, Initial residual = 6.13835e-07, Final residual = 6.13835e-07, No Iterations 0
time step continuity errors : sum local = 6.43501e-08, global = 1.01122e-17, cumulative = -2.11297e-17
ExecutionTime = 0.93 s  ClockTime = 1 s

Time = 49

smoothSolver:  Solving for Ux, Initial residual = 0.00318232, Final residual = 3.1112e-09, No Iterations 11
smoothSolver:  Solving for Uy, Initial residual = 0.0046055, Final residual = 5.19105e-09, No Iterations 11
GAMG:  Solving for p, Initial residual = 0.00984058, Final residual = 0.000275273, No Iterations 3
GAMG:  Solving for p, Initial residual = 0.000273274, Final residual = 1.07777e-05, No Iterations 6
GAMG:  Solving for p, Initial residual = 1.07777e-05, Final residual = 7.21031e-07, No Iterations 10
GAMG:  Solving for p, Initial residual = 7.21033e-07, Final residual = 7.21033e-07, No Iterations 0
time step continuity errors : sum local = 7.56251e-08, global = -1.18241e-17, cumulative = -3.29538e-17
ExecutionTime = 0.95 s  ClockTime = 1 s

Time = 50

smoothSolver:  Solving for Ux, Initial residual = 0.00310106, Final residual = 3.03808e-09, No Iterations 11
smoothSolver:  Solving for Uy, Initial residual = 0.00450451, Final residual = 5.07836e-09, No Iterations 11
GAMG:  Solving for p, Initial residual = 0.00962888, Final residual = 0.000269833, No Iterations 3
GAMG:  Solving for p, Initial residual = 0.000267915, Final residual = 1.05494e-05, No Iterations 6
GAMG:  Solving for p, Initial residual = 1.05494e-05, Final residual = 6.99307e-07, No Iterations 10
GAMG:  Solving for p, Initial residual = 6.99308e-07, Final residual = 6.99308e-07, No Iterations 0
time step continuity errors : sum local = 7.36862e-08, global = 5.53388e-18, cumulative = -2.74199e-17
ExecutionTime = 0.96 s  ClockTime = 1 s

Time = 51

smoothSolver:  Solving for Ux, Initial residual = 0.00302326, Final residual = 2.9679e-09, No Iterations 11
smoothSolver:  Solving for Uy, Initial residual = 0.00440687, Final residual = 4.96935e-09, No Iterations 11
GAMG:  Solving for p, Initial residual = 0.00942402, Final residual = 0.000264736, No Iterations 3
GAMG:  Solving for p, Initial residual = 0.000262892, Final residual = 1.01675e-05, No Iterations 6
GAMG:  Solving for p, Initial residual = 1.01675e-05, Final residual = 9.95712e-07, No Iterations 9
GAMG:  Solving for p, Initial residual = 9.95713e-07, Final residual = 9.95713e-07, No Iterations 0
time step continuity errors : sum local = 1.059e-07, global = -2.47668e-20, cumulative = -2.74447e-17
ExecutionTime = 0.99 s  ClockTime = 1 s

Time = 52

smoothSolver:  Solving for Ux, Initial residual = 0.00294895, Final residual = 2.90042e-09, No Iterations 11
smoothSolver:  Solving for Uy, Initial residual = 0.00431303, Final residual = 4.86453e-09, No Iterations 11
GAMG:  Solving for p, Initial residual = 0.00922724, Final residual = 0.000259869, No Iterations 3
GAMG:  Solving for p, Initial residual = 0.000258094, Final residual = 8.87587e-06, No Iterations 6
GAMG:  Solving for p, Initial residual = 8.87592e-06, Final residual = 6.6635e-07, No Iterations 11
GAMG:  Solving for p, Initial residual = 6.6635e-07, Final residual = 6.6635e-07, No Iterations 0
time step continuity errors : sum local = 6.95945e-08, global = -1.08303e-18, cumulative = -2.85277e-17
ExecutionTime = 1 s  ClockTime = 1 s

Time = 53

smoothSolver:  Solving for Ux, Initial residual = 0.00287808, Final residual = 9.94778e-09, No Iterations 10
smoothSolver:  Solving for Uy, Initial residual = 0.00422326, Final residual = 4.76416e-09, No Iterations 11
GAMG:  Solving for p, Initial residual = 0.00903869, Final residual = 0.000255085, No Iterations 3
GAMG:  Solving for p, Initial residual = 0.000253375, Final residual = 8.78895e-06, No Iterations 6
GAMG:  Solving for p, Initial residual = 8.78898e-06, Final residual = 9.7492e-07, No Iterations 8
GAMG:  Solving for p, Initial residual = 9.74919e-07, Final residual = 9.74919e-07, No Iterations 0
time step continuity errors : sum local = 1.01713e-07, global = 1.05815e-17, cumulative = -1.79462e-17
ExecutionTime = 1.02 s  ClockTime = 1 s

Time = 54

smoothSolver:  Solving for Ux, Initial residual = 0.00280999, Final residual = 9.72724e-09, No Iterations 10
smoothSolver:  Solving for Uy, Initial residual = 0.00413753, Final residual = 4.66821e-09, No Iterations 11
GAMG:  Solving for p, Initial residual = 0.00885936, Final residual = 0.000250335, No Iterations 3
GAMG:  Solving for p, Initial residual = 0.000248688, Final residual = 9.10795e-06, No Iterations 6
GAMG:  Solving for p, Initial residual = 9.10794e-06, Final residual = 9.37606e-07, No Iterations 9
GAMG:  Solving for p, Initial residual = 9.37607e-07, Final residual = 9.37607e-07, No Iterations 0
time step continuity errors : sum local = 1.00664e-07, global = -9.29257e-18, cumulative = -2.72387e-17
ExecutionTime = 1.03 s  ClockTime = 1 s

Time = 55

smoothSolver:  Solving for Ux, Initial residual = 0.00274446, Final residual = 9.51425e-09, No Iterations 10
smoothSolver:  Solving for Uy, Initial residual = 0.00405558, Final residual = 4.57638e-09, No Iterations 11
GAMG:  Solving for p, Initial residual = 0.00868912, Final residual = 0.000245665, No Iterations 3
GAMG:  Solving for p, Initial residual = 0.000244079, Final residual = 9.04774e-06, No Iterations 6
GAMG:  Solving for p, Initial residual = 9.04773e-06, Final residual = 8.40764e-07, No Iterations 9
GAMG:  Solving for p, Initial residual = 8.40765e-07, Final residual = 8.40765e-07, No Iterations 0
time step continuity errors : sum local = 9.01986e-08, global = 1.08736e-17, cumulative = -1.63652e-17
ExecutionTime = 1.05 s  ClockTime = 1 s

Time = 56

smoothSolver:  Solving for Ux, Initial residual = 0.00268118, Final residual = 9.30802e-09, No Iterations 10
smoothSolver:  Solving for Uy, Initial residual = 0.00397696, Final residual = 4.48822e-09, No Iterations 11
GAMG:  Solving for p, Initial residual = 0.00852733, Final residual = 0.000241225, No Iterations 3
GAMG:  Solving for p, Initial residual = 0.000239699, Final residual = 8.96335e-06, No Iterations 6
GAMG:  Solving for p, Initial residual = 8.96334e-06, Final residual = 9.10633e-07, No Iterations 8
GAMG:  Solving for p, Initial residual = 9.10633e-07, Final residual = 9.10633e-07, No Iterations 0
time step continuity errors : sum local = 9.80009e-08, global = 4.49941e-18, cumulative = -1.18658e-17
ExecutionTime = 1.06 s  ClockTime = 1 s

Time = 57

smoothSolver:  Solving for Ux, Initial residual = 0.00262002, Final residual = 9.1081e-09, No Iterations 10
smoothSolver:  Solving for Uy, Initial residual = 0.00390121, Final residual = 4.40325e-09, No Iterations 11
GAMG:  Solving for p, Initial residual = 0.00837304, Final residual = 0.000237035, No Iterations 3
GAMG:  Solving for p, Initial residual = 0.000235563, Final residual = 8.8572e-06, No Iterations 6
GAMG:  Solving for p, Initial residual = 8.85719e-06, Final residual = 8.46027e-07, No Iterations 7
GAMG:  Solving for p, Initial residual = 8.46027e-07, Final residual = 8.46027e-07, No Iterations 0
time step continuity errors : sum local = 8.98669e-08, global = 8.95192e-18, cumulative = -2.91384e-18
ExecutionTime = 1.08 s  ClockTime = 1 s

Time = 58

smoothSolver:  Solving for Ux, Initial residual = 0.00256083, Final residual = 8.91546e-09, No Iterations 10
smoothSolver:  Solving for Uy, Initial residual = 0.00382796, Final residual = 4.3211e-09, No Iterations 11
GAMG:  Solving for p, Initial residual = 0.00822499, Final residual = 0.000233076, No Iterations 3
GAMG:  Solving for p, Initial residual = 0.000231655, Final residual = 8.74443e-06, No Iterations 6
GAMG:  Solving for p, Initial residual = 8.74442e-06, Final residual = 7.97203e-07, No Iterations 7
GAMG:  Solving for p, Initial residual = 7.97203e-07, Final residual = 7.97203e-07, No Iterations 0
time step continuity errors : sum local = 8.51344e-08, global = 4.03956e-18, cumulative = 1.12573e-18
ExecutionTime = 1.09 s  ClockTime = 1 s

Time = 59

smoothSolver:  Solving for Ux, Initial residual = 0.00250354, Final residual = 8.73042e-09, No Iterations 10
smoothSolver:  Solving for Uy, Initial residual = 0.00375703, Final residual = 4.24149e-09, No Iterations 11
GAMG:  Solving for p, Initial residual = 0.00808236, Final residual = 0.000229268, No Iterations 3
GAMG:  Solving for p, Initial residual = 0.000227891, Final residual = 8.63332e-06, No Iterations 6
GAMG:  Solving for p, Initial residual = 8.63331e-06, Final residual = 8.9554e-07, No Iterations 7
GAMG:  Solving for p, Initial residual = 8.9554e-07, Final residual = 8.9554e-07, No Iterations 0
time step continuity errors : sum local = 9.75245e-08, global = 3.21847e-18, cumulative = 4.34419e-18
ExecutionTime = 1.11 s  ClockTime = 1 s

Time = 60

smoothSolver:  Solving for Ux, Initial residual = 0.00244829, Final residual = 8.55192e-09, No Iterations 10
smoothSolver:  Solving for Uy, Initial residual = 0.00368827, Final residual = 4.16428e-09, No Iterations 11
GAMG:  Solving for p, Initial residual = 0.00794467, Final residual = 0.000225568, No Iterations 3
GAMG:  Solving for p, Initial residual = 0.000224233, Final residual = 8.53807e-06, No Iterations 6
GAMG:  Solving for p, Initial residual = 8.53806e-06, Final residual = 8.67029e-07, No Iterations 7
GAMG:  Solving for p, Initial residual = 8.67028e-07, Final residual = 8.67028e-07, No Iterations 0
time step continuity errors : sum local = 9.512e-08, global = -6.82362e-18, cumulative = -2.47943e-18
ExecutionTime = 1.12 s  ClockTime = 1 s

Time = 61

smoothSolver:  Solving for Ux, Initial residual = 0.00239501, Final residual = 8.37919e-09, No Iterations 10
smoothSolver:  Solving for Uy, Initial residual = 0.0036216, Final residual = 4.08939e-09, No Iterations 11
GAMG:  Solving for p, Initial residual = 0.0078112, Final residual = 0.000221917, No Iterations 3
GAMG:  Solving for p, Initial residual = 0.000220623, Final residual = 9.18916e-06, No Iterations 7
GAMG:  Solving for p, Initial residual = 9.18915e-06, Final residual = 8.97294e-07, No Iterations 12
GAMG:  Solving for p, Initial residual = 8.97294e-07, Final residual = 8.97294e-07, No Iterations 0
time step continuity errors : sum local = 9.90621e-08, global = 4.41862e-18, cumulative = 1.93919e-18
ExecutionTime = 1.14 s  ClockTime = 1 s

Time = 62

smoothSolver:  Solving for Ux, Initial residual = 0.00234356, Final residual = 8.21235e-09, No Iterations 10
smoothSolver:  Solving for Uy, Initial residual = 0.00355699, Final residual = 4.01681e-09, No Iterations 11
GAMG:  Solving for p, Initial residual = 0.00768148, Final residual = 0.000218296, No Iterations 3
GAMG:  Solving for p, Initial residual = 0.000217043, Final residual = 8.25786e-06, No Iterations 8
GAMG:  Solving for p, Initial residual = 8.25785e-06, Final residual = 9.32159e-07, No Iterations 6
GAMG:  Solving for p, Initial residual = 9.32157e-07, Final residual = 9.32157e-07, No Iterations 0
time step continuity errors : sum local = 1.00877e-07, global = -2.03871e-17, cumulative = -1.84479e-17
ExecutionTime = 1.15 s  ClockTime = 1 s

Time = 63

smoothSolver:  Solving for Ux, Initial residual = 0.00229402, Final residual = 8.05048e-09, No Iterations 10
smoothSolver:  Solving for Uy, Initial residual = 0.00349443, Final residual = 3.94651e-09, No Iterations 11
GAMG:  Solving for p, Initial residual = 0.00755529, Final residual = 0.000214729, No Iterations 3
GAMG:  Solving for p, Initial residual = 0.000213518, Final residual = 8.52632e-06, No Iterations 8
GAMG:  Solving for p, Initial residual = 8.52629e-06, Final residual = 9.03698e-07, No Iterations 9
GAMG:  Solving for p, Initial residual = 9.03699e-07, Final residual = 9.03699e-07, No Iterations 0
time step continuity errors : sum local = 1.00413e-07, global = -6.74836e-18, cumulative = -2.51963e-17
ExecutionTime = 1.17 s  ClockTime = 1 s

Time = 64

smoothSolver:  Solving for Ux, Initial residual = 0.00224618, Final residual = 7.89302e-09, No Iterations 10
smoothSolver:  Solving for Uy, Initial residual = 0.00343388, Final residual = 3.87844e-09, No Iterations 11
GAMG:  Solving for p, Initial residual = 0.00743295, Final residual = 0.00021123, No Iterations 3
GAMG:  Solving for p, Initial residual = 0.000210057, Final residual = 8.47159e-06, No Iterations 8
GAMG:  Solving for p, Initial residual = 8.47156e-06, Final residual = 8.54322e-07, No Iterations 9
GAMG:  Solving for p, Initial residual = 8.54322e-07, Final residual = 8.54322e-07, No Iterations 0
time step continuity errors : sum local = 9.47883e-08, global = 1.0794e-17, cumulative = -1.44023e-17
ExecutionTime = 1.18 s  ClockTime = 1 s

Time = 65

smoothSolver:  Solving for Ux, Initial residual = 0.00219997, Final residual = 7.7399e-09, No Iterations 10
smoothSolver:  Solving for Uy, Initial residual = 0.00337526, Final residual = 3.81252e-09, No Iterations 11
GAMG:  Solving for p, Initial residual = 0.0073149, Final residual = 0.00020784, No Iterations 3
GAMG:  Solving for p, Initial residual = 0.000206704, Final residual = 7.91253e-06, No Iterations 9
GAMG:  Solving for p, Initial residual = 7.9125e-06, Final residual = 9.19541e-07, No Iterations 6
GAMG:  Solving for p, Initial residual = 9.19542e-07, Final residual = 9.19542e-07, No Iterations 0
time step continuity errors : sum local = 1.01832e-07, global = 9.71395e-18, cumulative = -4.68836e-18
ExecutionTime = 1.2 s  ClockTime = 1 s

Time = 66

smoothSolver:  Solving for Ux, Initial residual = 0.00215515, Final residual = 7.59106e-09, No Iterations 10
smoothSolver:  Solving for Uy, Initial residual = 0.00331846, Final residual = 3.74864e-09, No Iterations 11
GAMG:  Solving for p, Initial residual = 0.00720102, Final residual = 0.000204577, No Iterations 3
GAMG:  Solving for p, Initial residual = 0.000203477, Final residual = 7.88779e-06, No Iterations 9
GAMG:  Solving for p, Initial residual = 7.88775e-06, Final residual = 9.05807e-07, No Iterations 8
GAMG:  Solving for p, Initial residual = 9.05808e-07, Final residual = 9.05808e-07, No Iterations 0
time step continuity errors : sum local = 1.0173e-07, global = -8.14559e-18, cumulative = -1.2834e-17
ExecutionTime = 1.21 s  ClockTime = 1 s

Time = 67

smoothSolver:  Solving for Ux, Initial residual = 0.00211166, Final residual = 7.44619e-09, No Iterations 10
smoothSolver:  Solving for Uy, Initial residual = 0.0032634, Final residual = 3.68668e-09, No Iterations 11
GAMG:  Solving for p, Initial residual = 0.00709066, Final residual = 0.000201449, No Iterations 3
GAMG:  Solving for p, Initial residual = 0.000200382, Final residual = 9.82082e-06, No Iterations 10
GAMG:  Solving for p, Initial residual = 9.82075e-06, Final residual = 9.21553e-07, No Iterations 11
GAMG:  Solving for p, Initial residual = 9.21556e-07, Final residual = 9.21556e-07, No Iterations 0
time step continuity errors : sum local = 1.01551e-07, global = 1.1199e-17, cumulative = -1.63492e-18
ExecutionTime = 1.23 s  ClockTime = 1 s

Time = 68

smoothSolver:  Solving for Ux, Initial residual = 0.00206946, Final residual = 7.30511e-09, No Iterations 10
smoothSolver:  Solving for Uy, Initial residual = 0.00320997, Final residual = 3.62653e-09, No Iterations 11
GAMG:  Solving for p, Initial residual = 0.00698376, Final residual = 0.000198438, No Iterations 3
GAMG:  Solving for p, Initial residual = 0.000197403, Final residual = 9.7818e-06, No Iterations 10
GAMG:  Solving for p, Initial residual = 9.78173e-06, Final residual = 8.5884e-07, No Iterations 10
GAMG:  Solving for p, Initial residual = 8.58842e-07, Final residual = 8.58842e-07, No Iterations 0
time step continuity errors : sum local = 9.59173e-08, global = -4.31887e-18, cumulative = -5.95378e-18
ExecutionTime = 1.25 s  ClockTime = 1 s

Time = 69

smoothSolver:  Solving for Ux, Initial residual = 0.00202849, Final residual = 7.16773e-09, No Iterations 10
smoothSolver:  Solving for Uy, Initial residual = 0.00315806, Final residual = 3.56807e-09, No Iterations 11
GAMG:  Solving for p, Initial residual = 0.00687975, Final residual = 0.000195532, No Iterations 3
GAMG:  Solving for p, Initial residual = 0.000194528, Final residual = 9.72606e-06, No Iterations 10
GAMG:  Solving for p, Initial residual = 9.72599e-06, Final residual = 9.04911e-07, No Iterations 9
GAMG:  Solving for p, Initial residual = 9.04913e-07, Final residual = 9.04913e-07, No Iterations 0
time step continuity errors : sum local = 1.0156e-07, global = 5.28631e-18, cumulative = -6.6748e-19
ExecutionTime = 1.26 s  ClockTime = 1 s

Time = 70

smoothSolver:  Solving for Ux, Initial residual = 0.00198876, Final residual = 7.03513e-09, No Iterations 10
smoothSolver:  Solving for Uy, Initial residual = 0.00310759, Final residual = 3.51122e-09, No Iterations 11
GAMG:  Solving for p, Initial residual = 0.00677835, Final residual = 0.000192718, No Iterations 3
GAMG:  Solving for p, Initial residual = 0.000191741, Final residual = 8.39339e-06, No Iterations 11
GAMG:  Solving for p, Initial residual = 8.39337e-06, Final residual = 8.73111e-07, No Iterations 8
GAMG:  Solving for p, Initial residual = 8.7311e-07, Final residual = 8.7311e-07, No Iterations 0
time step continuity errors : sum local = 9.77665e-08, global = -1.55983e-17, cumulative = -1.62658e-17
ExecutionTime = 1.28 s  ClockTime = 1 s

Time = 71

smoothSolver:  Solving for Ux, Initial residual = 0.00195019, Final residual = 6.90745e-09, No Iterations 10
smoothSolver:  Solving for Uy, Initial residual = 0.00305849, Final residual = 3.45592e-09, No Iterations 11
GAMG:  Solving for p, Initial residual = 0.00667937, Final residual = 0.000189981, No Iterations 3
GAMG:  Solving for p, Initial residual = 0.000189031, Final residual = 8.31549e-06, No Iterations 11
GAMG:  Solving for p, Initial residual = 8.31547e-06, Final residual = 8.27039e-07, No Iterations 8
GAMG:  Solving for p, Initial residual = 8.27038e-07, Final residual = 8.27038e-07, No Iterations 0
time step continuity errors : sum local = 9.23587e-08, global = -1.03898e-17, cumulative = -2.66556e-17
ExecutionTime = 1.3 s  ClockTime = 1 s

Time = 72

smoothSolver:  Solving for Ux, Initial residual = 0.00191271, Final residual = 6.78407e-09, No Iterations 10
smoothSolver:  Solving for Uy, Initial residual = 0.00301071, Final residual = 3.4021e-09, No Iterations 11
GAMG:  Solving for p, Initial residual = 0.0065824, Final residual = 0.000187312, No Iterations 3
GAMG:  Solving for p, Initial residual = 0.000186388, Final residual = 8.21191e-06, No Iterations 11
GAMG:  Solving for p, Initial residual = 8.2119e-06, Final residual = 7.96086e-07, No Iterations 8
GAMG:  Solving for p, Initial residual = 7.96084e-07, Final residual = 7.96084e-07, No Iterations 0
time step continuity errors : sum local = 8.9075e-08, global = -2.62245e-18, cumulative = -2.9278e-17
ExecutionTime = 1.31 s  ClockTime = 1 s

Time = 73

smoothSolver:  Solving for Ux, Initial residual = 0.00187641, Final residual = 6.66471e-09, No Iterations 10
smoothSolver:  Solving for Uy, Initial residual = 0.00296419, Final residual = 3.3497e-09, No Iterations 11
GAMG:  Solving for p, Initial residual = 0.00648762, Final residual = 0.000184716, No Iterations 3
GAMG:  Solving for p, Initial residual = 0.000183817, Final residual = 8.08261e-06, No Iterations 11
GAMG:  Solving for p, Initial residual = 8.08259e-06, Final residual = 9.963e-07, No Iterations 7
GAMG:  Solving for p, Initial residual = 9.96298e-07, Final residual = 9.96298e-07, No Iterations 0
time step continuity errors : sum local = 1.14461e-07, global = 2.11386e-17, cumulative = -8.13947e-18
ExecutionTime = 1.33 s  ClockTime = 1 s

Time = 74

smoothSolver:  Solving for Ux, Initial residual = 0.00184124, Final residual = 6.54874e-09, No Iterations 10
smoothSolver:  Solving for Uy, Initial residual = 0.00291892, Final residual = 3.29869e-09, No Iterations 11
GAMG:  Solving for p, Initial residual = 0.00639503, Final residual = 0.000182178, No Iterations 3
GAMG:  Solving for p, Initial residual = 0.000181304, Final residual = 7.34202e-06, No Iterations 11
GAMG:  Solving for p, Initial residual = 7.34198e-06, Final residual = 9.22556e-07, No Iterations 7
GAMG:  Solving for p, Initial residual = 9.22558e-07, Final residual = 9.22558e-07, No Iterations 0
time step continuity errors : sum local = 1.05919e-07, global = -8.81594e-18, cumulative = -1.69554e-17
ExecutionTime = 1.35 s  ClockTime = 1 s

Time = 75

smoothSolver:  Solving for Ux, Initial residual = 0.00180714, Final residual = 6.43549e-09, No Iterations 10
smoothSolver:  Solving for Uy, Initial residual = 0.00287485, Final residual = 3.24902e-09, No Iterations 11
GAMG:  Solving for p, Initial residual = 0.00630451, Final residual = 0.000179681, No Iterations 3
GAMG:  Solving for p, Initial residual = 0.000178831, Final residual = 7.19554e-06, No Iterations 11
GAMG:  Solving for p, Initial residual = 7.19549e-06, Final residual = 8.69651e-07, No Iterations 7
GAMG:  Solving for p, Initial residual = 8.69653e-07, Final residual = 8.69653e-07, No Iterations 0
time step continuity errors : sum local = 9.97566e-08, global = 3.01819e-18, cumulative = -1.39372e-17
ExecutionTime = 1.36 s  ClockTime = 1 s

Time = 76

smoothSolver:  Solving for Ux, Initial residual = 0.00177399, Final residual = 6.3248e-09, No Iterations 10
smoothSolver:  Solving for Uy, Initial residual = 0.00283193, Final residual = 3.20063e-09, No Iterations 11
GAMG:  Solving for p, Initial residual = 0.00621605, Final residual = 0.000177253, No Iterations 3
GAMG:  Solving for p, Initial residual = 0.000176426, Final residual = 8.74913e-06, No Iterations 10
GAMG:  Solving for p, Initial residual = 8.74909e-06, Final residual = 9.742e-07, No Iterations 7
GAMG:  Solving for p, Initial residual = 9.74201e-07, Final residual = 9.74201e-07, No Iterations 0
time step continuity errors : sum local = 1.09339e-07, global = -1.10675e-17, cumulative = -2.50047e-17
ExecutionTime = 1.38 s  ClockTime = 2 s

Time = 77

smoothSolver:  Solving for Ux, Initial residual = 0.00174181, Final residual = 6.21661e-09, No Iterations 10
smoothSolver:  Solving for Uy, Initial residual = 0.00279008, Final residual = 3.15347e-09, No Iterations 11
GAMG:  Solving for p, Initial residual = 0.00612953, Final residual = 0.00017492, No Iterations 3
GAMG:  Solving for p, Initial residual = 0.000174115, Final residual = 8.56009e-06, No Iterations 10
GAMG:  Solving for p, Initial residual = 8.56005e-06, Final residual = 7.64447e-07, No Iterations 7
GAMG:  Solving for p, Initial residual = 7.64447e-07, Final residual = 7.64447e-07, No Iterations 0
time step continuity errors : sum local = 8.6207e-08, global = 1.27764e-17, cumulative = -1.22283e-17
ExecutionTime = 1.39 s  ClockTime = 2 s

Time = 78

smoothSolver:  Solving for Ux, Initial residual = 0.00171058, Final residual = 6.11087e-09, No Iterations 10
smoothSolver:  Solving for Uy, Initial residual = 0.00274929, Final residual = 3.10748e-09, No Iterations 11
GAMG:  Solving for p, Initial residual = 0.006045, Final residual = 0.000172638, No Iterations 3
GAMG:  Solving for p, Initial residual = 0.000171855, Final residual = 6.50416e-06, No Iterations 10
GAMG:  Solving for p, Initial residual = 6.50414e-06, Final residual = 7.37836e-07, No Iterations 7
GAMG:  Solving for p, Initial residual = 7.37836e-07, Final residual = 7.37836e-07, No Iterations 0
time step continuity errors : sum local = 8.35909e-08, global = 7.23984e-18, cumulative = -4.98848e-18
ExecutionTime = 1.41 s  ClockTime = 2 s

Time = 79

smoothSolver:  Solving for Ux, Initial residual = 0.00168021, Final residual = 6.00763e-09, No Iterations 10
smoothSolver:  Solving for Uy, Initial residual = 0.00270951, Final residual = 3.06263e-09, No Iterations 11
GAMG:  Solving for p, Initial residual = 0.00596224, Final residual = 0.000170431, No Iterations 3
GAMG:  Solving for p, Initial residual = 0.000169667, Final residual = 6.36473e-06, No Iterations 10
GAMG:  Solving for p, Initial residual = 6.3647e-06, Final residual = 6.85611e-07, No Iterations 7
GAMG:  Solving for p, Initial residual = 6.85611e-07, Final residual = 6.85611e-07, No Iterations 0
time step continuity errors : sum local = 7.80319e-08, global = 4.33215e-18, cumulative = -6.56328e-19
ExecutionTime = 1.43 s  ClockTime = 2 s

Time = 80

smoothSolver:  Solving for Ux, Initial residual = 0.00165061, Final residual = 5.90685e-09, No Iterations 10
smoothSolver:  Solving for Uy, Initial residual = 0.00267069, Final residual = 3.01886e-09, No Iterations 11
GAMG:  Solving for p, Initial residual = 0.00588095, Final residual = 0.000168288, No Iterations 3
GAMG:  Solving for p, Initial residual = 0.000167543, Final residual = 6.22067e-06, No Iterations 10
GAMG:  Solving for p, Initial residual = 6.22065e-06, Final residual = 7.67984e-07, No Iterations 6
GAMG:  Solving for p, Initial residual = 7.67984e-07, Final residual = 7.67984e-07, No Iterations 0
time step continuity errors : sum local = 8.77431e-08, global = 1.57844e-17, cumulative = 1.51281e-17
ExecutionTime = 1.44 s  ClockTime = 2 s

Time = 81

smoothSolver:  Solving for Ux, Initial residual = 0.00162177, Final residual = 5.80906e-09, No Iterations 10
smoothSolver:  Solving for Uy, Initial residual = 0.0026328, Final residual = 2.97614e-09, No Iterations 11
GAMG:  Solving for p, Initial residual = 0.00580162, Final residual = 0.000166211, No Iterations 3
GAMG:  Solving for p, Initial residual = 0.000165485, Final residual = 6.07787e-06, No Iterations 10
GAMG:  Solving for p, Initial residual = 6.07785e-06, Final residual = 7.36277e-07, No Iterations 6
GAMG:  Solving for p, Initial residual = 7.36277e-07, Final residual = 7.36277e-07, No Iterations 0
time step continuity errors : sum local = 8.41713e-08, global = 7.31243e-18, cumulative = 2.24405e-17
ExecutionTime = 1.46 s  ClockTime = 2 s

Time = 82

smoothSolver:  Solving for Ux, Initial residual = 0.00159366, Final residual = 5.71485e-09, No Iterations 10
smoothSolver:  Solving for Uy, Initial residual = 0.0025958, Final residual = 2.93443e-09, No Iterations 11
GAMG:  Solving for p, Initial residual = 0.00572389, Final residual = 0.000164189, No Iterations 3
GAMG:  Solving for p, Initial residual = 0.000163482, Final residual = 5.9334e-06, No Iterations 10
GAMG:  Solving for p, Initial residual = 5.93338e-06, Final residual = 7.51794e-07, No Iterations 5
GAMG:  Solving for p, Initial residual = 7.51794e-07, Final residual = 7.51794e-07, No Iterations 0
time step continuity errors : sum local = 8.68462e-08, global = -1.47368e-17, cumulative = 7.70372e-18
ExecutionTime = 1.47 s  ClockTime = 2 s

Time = 83

smoothSolver:  Solving for Ux, Initial residual = 0.00156625, Final residual = 5.62323e-09, No Iterations 10
smoothSolver:  Solving for Uy, Initial residual = 0.00255967, Final residual = 2.89369e-09, No Iterations 11
GAMG:  Solving for p, Initial residual = 0.00564748, Final residual = 0.000162231, No Iterations 3
GAMG:  Solving for p, Initial residual = 0.000161542, Final residual = 6.24002e-06, No Iterations 9
GAMG:  Solving for p, Initial residual = 6.23998e-06, Final residual = 8.93931e-07, No Iterations 6
GAMG:  Solving for p, Initial residual = 8.93932e-07, Final residual = 8.93932e-07, No Iterations 0
time step continuity errors : sum local = 1.029e-07, global = -1.77481e-18, cumulative = 5.92891e-18
ExecutionTime = 1.49 s  ClockTime = 2 s

Time = 84

smoothSolver:  Solving for Ux, Initial residual = 0.00153954, Final residual = 5.53392e-09, No Iterations 10
smoothSolver:  Solving for Uy, Initial residual = 0.00252436, Final residual = 9.90667e-09, No Iterations 10
GAMG:  Solving for p, Initial residual = 0.00557239, Final residual = 0.000160314, No Iterations 3
GAMG:  Solving for p, Initial residual = 0.000159642, Final residual = 6.13601e-06, No Iterations 9
GAMG:  Solving for p, Initial residual = 6.13598e-06, Final residual = 8.41721e-07, No Iterations 6
GAMG:  Solving for p, Initial residual = 8.41722e-07, Final residual = 8.41722e-07, No Iterations 0
time step continuity errors : sum local = 9.71898e-08, global = 6.86195e-18, cumulative = 1.27909e-17
ExecutionTime = 1.5 s  ClockTime = 2 s

Time = 85

smoothSolver:  Solving for Ux, Initial residual = 0.00151359, Final residual = 5.44682e-09, No Iterations 10
smoothSolver:  Solving for Uy, Initial residual = 0.00248987, Final residual = 9.77161e-09, No Iterations 10
GAMG:  Solving for p, Initial residual = 0.00549854, Final residual = 0.000158429, No Iterations 3
GAMG:  Solving for p, Initial residual = 0.000157774, Final residual = 6.03089e-06, No Iterations 9
GAMG:  Solving for p, Initial residual = 6.03086e-06, Final residual = 9.83621e-07, No Iterations 5
GAMG:  Solving for p, Initial residual = 9.83622e-07, Final residual = 9.83622e-07, No Iterations 0
time step continuity errors : sum local = 1.13389e-07, global = 9.47299e-18, cumulative = 2.22639e-17
ExecutionTime = 1.51 s  ClockTime = 2 s

Time = 86

smoothSolver:  Solving for Ux, Initial residual = 0.00148833, Final residual = 5.36191e-09, No Iterations 10
smoothSolver:  Solving for Uy, Initial residual = 0.00245614, Final residual = 9.6396e-09, No Iterations 10
GAMG:  Solving for p, Initial residual = 0.00542592, Final residual = 0.00015658, No Iterations 3
GAMG:  Solving for p, Initial residual = 0.00015594, Final residual = 5.92694e-06, No Iterations 9
GAMG:  Solving for p, Initial residual = 5.92691e-06, Final residual = 9.53794e-07, No Iterations 5
GAMG:  Solving for p, Initial residual = 9.53794e-07, Final residual = 9.53794e-07, No Iterations 0
time step continuity errors : sum local = 1.10126e-07, global = 8.69451e-18, cumulative = 3.09584e-17
ExecutionTime = 1.53 s  ClockTime = 2 s

Time = 87

smoothSolver:  Solving for Ux, Initial residual = 0.00146376, Final residual = 5.27924e-09, No Iterations 10
smoothSolver:  Solving for Uy, Initial residual = 0.00242318, Final residual = 9.51053e-09, No Iterations 10
GAMG:  Solving for p, Initial residual = 0.00535465, Final residual = 0.000154763, No Iterations 3
GAMG:  Solving for p, Initial residual = 0.000154139, Final residual = 5.81696e-06, No Iterations 9
GAMG:  Solving for p, Initial residual = 5.81693e-06, Final residual = 7.1358e-07, No Iterations 5
GAMG:  Solving for p, Initial residual = 7.1358e-07, Final residual = 7.1358e-07, No Iterations 0
time step continuity errors : sum local = 8.35707e-08, global = 4.48136e-18, cumulative = 3.54397e-17
ExecutionTime = 1.54 s  ClockTime = 2 s

Time = 88

smoothSolver:  Solving for Ux, Initial residual = 0.00143983, Final residual = 5.19847e-09, No Iterations 10
smoothSolver:  Solving for Uy, Initial residual = 0.00239094, Final residual = 9.38429e-09, No Iterations 10
GAMG:  Solving for p, Initial residual = 0.00528481, Final residual = 0.000152986, No Iterations 3
GAMG:  Solving for p, Initial residual = 0.000152376, Final residual = 5.71431e-06, No Iterations 9
GAMG:  Solving for p, Initial residual = 5.71427e-06, Final residual = 9.76319e-07, No Iterations 4
GAMG:  Solving for p, Initial residual = 9.7632e-07, Final residual = 9.7632e-07, No Iterations 0
time step continuity errors : sum local = 1.14686e-07, global = 3.38024e-18, cumulative = 3.882e-17
ExecutionTime = 1.56 s  ClockTime = 2 s

Time = 89

smoothSolver:  Solving for Ux, Initial residual = 0.00141653, Final residual = 5.11952e-09, No Iterations 10
smoothSolver:  Solving for Uy, Initial residual = 0.00235939, Final residual = 9.26078e-09, No Iterations 10
GAMG:  Solving for p, Initial residual = 0.00521615, Final residual = 0.000151265, No Iterations 3
GAMG:  Solving for p, Initial residual = 0.000150669, Final residual = 5.60382e-06, No Iterations 9
GAMG:  Solving for p, Initial residual = 5.60378e-06, Final residual = 9.43577e-07, No Iterations 4
GAMG:  Solving for p, Initial residual = 9.43578e-07, Final residual = 9.43578e-07, No Iterations 0
time step continuity errors : sum local = 1.11296e-07, global = 1.40255e-18, cumulative = 4.02225e-17
ExecutionTime = 1.57 s  ClockTime = 2 s

Time = 90

smoothSolver:  Solving for Ux, Initial residual = 0.00139382, Final residual = 5.04242e-09, No Iterations 10
smoothSolver:  Solving for Uy, Initial residual = 0.00232852, Final residual = 9.13991e-09, No Iterations 10
GAMG:  Solving for p, Initial residual = 0.00514847, Final residual = 0.000149585, No Iterations 3
GAMG:  Solving for p, Initial residual = 0.000149003, Final residual = 5.49465e-06, No Iterations 9
GAMG:  Solving for p, Initial residual = 5.49461e-06, Final residual = 9.10597e-07, No Iterations 4
GAMG:  Solving for p, Initial residual = 9.10598e-07, Final residual = 9.10598e-07, No Iterations 0
time step continuity errors : sum local = 1.07817e-07, global = -3.8277e-18, cumulative = 3.63948e-17
ExecutionTime = 1.58 s  ClockTime = 2 s

Time = 91

smoothSolver:  Solving for Ux, Initial residual = 0.00137174, Final residual = 4.96711e-09, No Iterations 10
smoothSolver:  Solving for Uy, Initial residual = 0.00229829, Final residual = 9.02159e-09, No Iterations 10
GAMG:  Solving for p, Initial residual = 0.00508198, Final residual = 0.000147943, No Iterations 3
GAMG:  Solving for p, Initial residual = 0.000147375, Final residual = 5.38774e-06, No Iterations 9
GAMG:  Solving for p, Initial residual = 5.38771e-06, Final residual = 7.84181e-07, No Iterations 4
GAMG:  Solving for p, Initial residual = 7.84181e-07, Final residual = 7.84181e-07, No Iterations 0
time step continuity errors : sum local = 9.42866e-08, global = 5.08858e-18, cumulative = 4.14834e-17
ExecutionTime = 1.6 s  ClockTime = 2 s

Time = 92

smoothSolver:  Solving for Ux, Initial residual = 0.00135023, Final residual = 4.89354e-09, No Iterations 10
smoothSolver:  Solving for Uy, Initial residual = 0.0022687, Final residual = 8.90574e-09, No Iterations 10
GAMG:  Solving for p, Initial residual = 0.00501665, Final residual = 0.000146325, No Iterations 3
GAMG:  Solving for p, Initial residual = 0.00014577, Final residual = 5.29549e-06, No Iterations 9
GAMG:  Solving for p, Initial residual = 5.29547e-06, Final residual = 7.67707e-07, No Iterations 4
GAMG:  Solving for p, Initial residual = 7.67707e-07, Final residual = 7.67707e-07, No Iterations 0
time step continuity errors : sum local = 9.24247e-08, global = 9.12209e-18, cumulative = 5.06055e-17
ExecutionTime = 1.61 s  ClockTime = 2 s

Time = 93

smoothSolver:  Solving for Ux, Initial residual = 0.00132921, Final residual = 4.8217e-09, No Iterations 10
smoothSolver:  Solving for Uy, Initial residual = 0.00223972, Final residual = 8.79229e-09, No Iterations 10
GAMG:  Solving for p, Initial residual = 0.00495262, Final residual = 0.00014474, No Iterations 3
GAMG:  Solving for p, Initial residual = 0.000144199, Final residual = 5.20474e-06, No Iterations 9
GAMG:  Solving for p, Initial residual = 5.20471e-06, Final residual = 7.51324e-07, No Iterations 4
GAMG:  Solving for p, Initial residual = 7.51325e-07, Final residual = 7.51325e-07, No Iterations 0
time step continuity errors : sum local = 9.056e-08, global = 4.49633e-18, cumulative = 5.51018e-17
ExecutionTime = 1.63 s  ClockTime = 2 s

Time = 94

smoothSolver:  Solving for Ux, Initial residual = 0.00130868, Final residual = 4.7521e-09, No Iterations 10
smoothSolver:  Solving for Uy, Initial residual = 0.00221133, Final residual = 8.68118e-09, No Iterations 10
GAMG:  Solving for p, Initial residual = 0.00488961, Final residual = 0.000143184, No Iterations 3
GAMG:  Solving for p, Initial residual = 0.000142655, Final residual = 5.11584e-06, No Iterations 9
GAMG:  Solving for p, Initial residual = 5.11582e-06, Final residual = 7.34976e-07, No Iterations 4
GAMG:  Solving for p, Initial residual = 7.34976e-07, Final residual = 7.34976e-07, No Iterations 0
time step continuity errors : sum local = 8.86788e-08, global = -7.57927e-18, cumulative = 4.75226e-17
ExecutionTime = 1.64 s  ClockTime = 2 s

Time = 95

smoothSolver:  Solving for Ux, Initial residual = 0.00128863, Final residual = 4.68434e-09, No Iterations 10
smoothSolver:  Solving for Uy, Initial residual = 0.00218353, Final residual = 8.57231e-09, No Iterations 10
GAMG:  Solving for p, Initial residual = 0.00482753, Final residual = 0.000141667, No Iterations 3
GAMG:  Solving for p, Initial residual = 0.00014115, Final residual = 5.03004e-06, No Iterations 9
GAMG:  Solving for p, Initial residual = 5.03002e-06, Final residual = 8.57157e-07, No Iterations 5
GAMG:  Solving for p, Initial residual = 8.57157e-07, Final residual = 8.57157e-07, No Iterations 0
time step continuity errors : sum local = 1.03229e-07, global = 4.06629e-18, cumulative = 5.15888e-17
ExecutionTime = 1.65 s  ClockTime = 2 s

Time = 96

smoothSolver:  Solving for Ux, Initial residual = 0.00126905, Final residual = 4.61827e-09, No Iterations 10
smoothSolver:  Solving for Uy, Initial residual = 0.00215628, Final residual = 8.46562e-09, No Iterations 10
GAMG:  Solving for p, Initial residual = 0.00476648, Final residual = 0.000140197, No Iterations 3
GAMG:  Solving for p, Initial residual = 0.000139691, Final residual = 4.96234e-06, No Iterations 9
GAMG:  Solving for p, Initial residual = 4.96232e-06, Final residual = 8.4458e-07, No Iterations 5
GAMG:  Solving for p, Initial residual = 8.4458e-07, Final residual = 8.4458e-07, No Iterations 0
time step continuity errors : sum local = 1.01842e-07, global = -8.94243e-18, cumulative = 4.26464e-17
ExecutionTime = 1.67 s  ClockTime = 2 s

Time = 97

smoothSolver:  Solving for Ux, Initial residual = 0.00124993, Final residual = 4.55384e-09, No Iterations 10
smoothSolver:  Solving for Uy, Initial residual = 0.00212957, Final residual = 8.36106e-09, No Iterations 10
GAMG:  Solving for p, Initial residual = 0.00470644, Final residual = 0.000138755, No Iterations 3
GAMG:  Solving for p, Initial residual = 0.00013826, Final residual = 4.89455e-06, No Iterations 9
GAMG:  Solving for p, Initial residual = 4.89453e-06, Final residual = 8.3174e-07, No Iterations 5
GAMG:  Solving for p, Initial residual = 8.31741e-07, Final residual = 8.31741e-07, No Iterations 0
time step continuity errors : sum local = 1.00413e-07, global = 7.35347e-18, cumulative = 4.99999e-17
ExecutionTime = 1.68 s  ClockTime = 2 s

Time = 98

smoothSolver:  Solving for Ux, Initial residual = 0.00123131, Final residual = 4.49101e-09, No Iterations 10
smoothSolver:  Solving for Uy, Initial residual = 0.0021034, Final residual = 8.25859e-09, No Iterations 10
GAMG:  Solving for p, Initial residual = 0.00464716, Final residual = 0.000137333, No Iterations 3
GAMG:  Solving for p, Initial residual = 0.00013685, Final residual = 4.32945e-06, No Iterations 8
GAMG:  Solving for p, Initial residual = 4.32943e-06, Final residual = 8.58573e-07, No Iterations 4
GAMG:  Solving for p, Initial residual = 8.58574e-07, Final residual = 8.58574e-07, No Iterations 0
time step continuity errors : sum local = 1.02452e-07, global = 8.9751e-18, cumulative = 5.8975e-17
ExecutionTime = 1.7 s  ClockTime = 2 s

Time = 99

smoothSolver:  Solving for Ux, Initial residual = 0.00121318, Final residual = 4.42971e-09, No Iterations 10
smoothSolver:  Solving for Uy, Initial residual = 0.00207773, Final residual = 8.1581e-09, No Iterations 10
GAMG:  Solving for p, Initial residual = 0.00458865, Final residual = 0.000135939, No Iterations 3
GAMG:  Solving for p, Initial residual = 0.000135467, Final residual = 4.26538e-06, No Iterations 8
GAMG:  Solving for p, Initial residual = 4.26536e-06, Final residual = 8.38253e-07, No Iterations 4
GAMG:  Solving for p, Initial residual = 8.38254e-07, Final residual = 8.38254e-07, No Iterations 0
time step continuity errors : sum local = 1.00137e-07, global = 1.00037e-18, cumulative = 5.99753e-17
ExecutionTime = 1.72 s  ClockTime = 2 s

Time = 100

smoothSolver:  Solving for Ux, Initial residual = 0.00119552, Final residual = 4.37e-09, No Iterations 10
smoothSolver:  Solving for Uy, Initial residual = 0.00205256, Final residual = 8.05955e-09, No Iterations 10
GAMG:  Solving for p, Initial residual = 0.00453106, Final residual = 0.000134564, No Iterations 3
GAMG:  Solving for p, Initial residual = 0.000134102, Final residual = 4.19842e-06, No Iterations 8
GAMG:  Solving for p, Initial residual = 4.1984e-06, Final residual = 8.16885e-07, No Iterations 4
GAMG:  Solving for p, Initial residual = 8.16886e-07, Final residual = 8.16886e-07, No Iterations 0
time step continuity errors : sum local = 9.76908e-08, global = -1.76917e-17, cumulative = 4.22836e-17
ExecutionTime = 1.73 s  ClockTime = 2 s

Time = 101

smoothSolver:  Solving for Ux, Initial residual = 0.00117829, Final residual = 4.31171e-09, No Iterations 10
smoothSolver:  Solving for Uy, Initial residual = 0.00202787, Final residual = 7.96286e-09, No Iterations 10
GAMG:  Solving for p, Initial residual = 0.00447445, Final residual = 0.000133206, No Iterations 3
GAMG:  Solving for p, Initial residual = 0.000132754, Final residual = 4.12998e-06, No Iterations 8
GAMG:  Solving for p, Initial residual = 4.12996e-06, Final residual = 7.94879e-07, No Iterations 4
GAMG:  Solving for p, Initial residual = 7.9488e-07, Final residual = 7.9488e-07, No Iterations 0
time step continuity errors : sum local = 9.5159e-08, global = 6.016e-18, cumulative = 4.82996e-17
ExecutionTime = 1.74 s  ClockTime = 2 s

Time = 102

smoothSolver:  Solving for Ux, Initial residual = 0.00116146, Final residual = 4.25472e-09, No Iterations 10
smoothSolver:  Solving for Uy, Initial residual = 0.00200365, Final residual = 7.868e-09, No Iterations 10
GAMG:  Solving for p, Initial residual = 0.00441867, Final residual = 0.000131861, No Iterations 3
GAMG:  Solving for p, Initial residual = 0.000131419, Final residual = 4.06393e-06, No Iterations 8
GAMG:  Solving for p, Initial residual = 4.06391e-06, Final residual = 7.74742e-07, No Iterations 4
GAMG:  Solving for p, Initial residual = 7.74743e-07, Final residual = 7.74743e-07, No Iterations 0
[...]
GAMG:  Solving for p, Initial residual = 0.000113191, Final residual = 2.86818e-06, No Iterations 3
GAMG:  Solving for p, Initial residual = 2.86806e-06, Final residual = 7.03553e-07, No Iterations 3
GAMG:  Solving for p, Initial residual = 7.03553e-07, Final residual = 7.03553e-07, No Iterations 0
GAMG:  Solving for p, Initial residual = 7.03553e-07, Final residual = 7.03553e-07, No Iterations 0
time step continuity errors : sum local = 1.01509e-07, global = 1.20762e-17, cumulative = -4.45875e-16
ExecutionTime = 8.28 s  ClockTime = 8 s

Time = 720

smoothSolver:  Solving for Ux, Initial residual = 3.07336e-05, Final residual = 5.10406e-09, No Iterations 7
smoothSolver:  Solving for Uy, Initial residual = 4.26272e-05, Final residual = 7.07087e-09, No Iterations 7
GAMG:  Solving for p, Initial residual = 0.000112624, Final residual = 2.85388e-06, No Iterations 3
GAMG:  Solving for p, Initial residual = 2.85377e-06, Final residual = 7.00087e-07, No Iterations 3
GAMG:  Solving for p, Initial residual = 7.00087e-07, Final residual = 7.00087e-07, No Iterations 0
GAMG:  Solving for p, Initial residual = 7.00087e-07, Final residual = 7.00087e-07, No Iterations 0
time step continuity errors : sum local = 1.01012e-07, global = 3.97771e-18, cumulative = -4.41897e-16
ExecutionTime = 8.29 s  ClockTime = 8 s

Time = 721

smoothSolver:  Solving for Ux, Initial residual = 3.05794e-05, Final residual = 5.07845e-09, No Iterations 7
smoothSolver:  Solving for Uy, Initial residual = 4.24111e-05, Final residual = 7.03502e-09, No Iterations 7
GAMG:  Solving for p, Initial residual = 0.00011206, Final residual = 2.83965e-06, No Iterations 3
GAMG:  Solving for p, Initial residual = 2.83954e-06, Final residual = 6.96638e-07, No Iterations 3
GAMG:  Solving for p, Initial residual = 6.96638e-07, Final residual = 6.96638e-07, No Iterations 0
GAMG:  Solving for p, Initial residual = 6.96638e-07, Final residual = 6.96638e-07, No Iterations 0
time step continuity errors : sum local = 1.00516e-07, global = 1.81834e-18, cumulative = -4.40079e-16
ExecutionTime = 8.3 s  ClockTime = 8 s

Time = 722

smoothSolver:  Solving for Ux, Initial residual = 3.0426e-05, Final residual = 5.05297e-09, No Iterations 7
smoothSolver:  Solving for Uy, Initial residual = 4.21961e-05, Final residual = 6.99935e-09, No Iterations 7
GAMG:  Solving for p, Initial residual = 0.000111499, Final residual = 2.82549e-06, No Iterations 3
GAMG:  Solving for p, Initial residual = 2.82538e-06, Final residual = 6.93206e-07, No Iterations 3
GAMG:  Solving for p, Initial residual = 6.93206e-07, Final residual = 6.93206e-07, No Iterations 0
GAMG:  Solving for p, Initial residual = 6.93206e-07, Final residual = 6.93206e-07, No Iterations 0
time step continuity errors : sum local = 1.00023e-07, global = -5.45904e-18, cumulative = -4.45538e-16
ExecutionTime = 8.3 s  ClockTime = 8 s

Time = 723

smoothSolver:  Solving for Ux, Initial residual = 3.02734e-05, Final residual = 5.02762e-09, No Iterations 7
smoothSolver:  Solving for Uy, Initial residual = 4.19822e-05, Final residual = 6.96386e-09, No Iterations 7
GAMG:  Solving for p, Initial residual = 0.000110941, Final residual = 2.8114e-06, No Iterations 3
GAMG:  Solving for p, Initial residual = 2.81129e-06, Final residual = 6.8979e-07, No Iterations 3
GAMG:  Solving for p, Initial residual = 6.8979e-07, Final residual = 6.8979e-07, No Iterations 0
GAMG:  Solving for p, Initial residual = 6.8979e-07, Final residual = 6.8979e-07, No Iterations 0
time step continuity errors : sum local = 9.95327e-08, global = -4.1441e-18, cumulative = -4.49682e-16
ExecutionTime = 8.31 s  ClockTime = 8 s

Time = 724

smoothSolver:  Solving for Ux, Initial residual = 3.01215e-05, Final residual = 5.0024e-09, No Iterations 7
smoothSolver:  Solving for Uy, Initial residual = 4.17694e-05, Final residual = 6.92856e-09, No Iterations 7
GAMG:  Solving for p, Initial residual = 0.000110386, Final residual = 2.79738e-06, No Iterations 3
GAMG:  Solving for p, Initial residual = 2.79727e-06, Final residual = 6.86391e-07, No Iterations 3
GAMG:  Solving for p, Initial residual = 6.86391e-07, Final residual = 6.86391e-07, No Iterations 0
GAMG:  Solving for p, Initial residual = 6.86391e-07, Final residual = 6.86391e-07, No Iterations 0
time step continuity errors : sum local = 9.90445e-08, global = -7.50093e-18, cumulative = -4.57183e-16
ExecutionTime = 8.32 s  ClockTime = 8 s

Time = 725

smoothSolver:  Solving for Ux, Initial residual = 2.99704e-05, Final residual = 4.97731e-09, No Iterations 7
smoothSolver:  Solving for Uy, Initial residual = 4.15577e-05, Final residual = 6.89344e-09, No Iterations 7
GAMG:  Solving for p, Initial residual = 0.000109833, Final residual = 2.78343e-06, No Iterations 3
GAMG:  Solving for p, Initial residual = 2.78332e-06, Final residual = 6.83009e-07, No Iterations 3
GAMG:  Solving for p, Initial residual = 6.83009e-07, Final residual = 6.83009e-07, No Iterations 0
GAMG:  Solving for p, Initial residual = 6.83009e-07, Final residual = 6.83009e-07, No Iterations 0
time step continuity errors : sum local = 9.85586e-08, global = -1.80555e-17, cumulative = -4.75239e-16
ExecutionTime = 8.33 s  ClockTime = 8 s

Time = 726

smoothSolver:  Solving for Ux, Initial residual = 2.98201e-05, Final residual = 4.95234e-09, No Iterations 7
smoothSolver:  Solving for Uy, Initial residual = 4.13471e-05, Final residual = 6.85849e-09, No Iterations 7
GAMG:  Solving for p, Initial residual = 0.000109283, Final residual = 2.76955e-06, No Iterations 3
GAMG:  Solving for p, Initial residual = 2.76944e-06, Final residual = 6.79643e-07, No Iterations 3
GAMG:  Solving for p, Initial residual = 6.79643e-07, Final residual = 6.79643e-07, No Iterations 0
GAMG:  Solving for p, Initial residual = 6.79643e-07, Final residual = 6.79643e-07, No Iterations 0
time step continuity errors : sum local = 9.80751e-08, global = -1.68686e-18, cumulative = -4.76926e-16
ExecutionTime = 8.34 s  ClockTime = 8 s

Time = 727

smoothSolver:  Solving for Ux, Initial residual = 2.96705e-05, Final residual = 4.92749e-09, No Iterations 7
smoothSolver:  Solving for Uy, Initial residual = 4.11376e-05, Final residual = 6.82373e-09, No Iterations 7
GAMG:  Solving for p, Initial residual = 0.000108736, Final residual = 2.75574e-06, No Iterations 3
GAMG:  Solving for p, Initial residual = 2.75563e-06, Final residual = 6.76293e-07, No Iterations 3
GAMG:  Solving for p, Initial residual = 6.76293e-07, Final residual = 6.76293e-07, No Iterations 0
GAMG:  Solving for p, Initial residual = 6.76293e-07, Final residual = 6.76293e-07, No Iterations 0
time step continuity errors : sum local = 9.7594e-08, global = 1.10984e-17, cumulative = -4.65827e-16
ExecutionTime = 8.34 s  ClockTime = 8 s

Time = 728

smoothSolver:  Solving for Ux, Initial residual = 2.95217e-05, Final residual = 4.90278e-09, No Iterations 7
smoothSolver:  Solving for Uy, Initial residual = 4.09291e-05, Final residual = 6.78914e-09, No Iterations 7
GAMG:  Solving for p, Initial residual = 0.000108191, Final residual = 2.742e-06, No Iterations 3
GAMG:  Solving for p, Initial residual = 2.74189e-06, Final residual = 6.7296e-07, No Iterations 3
GAMG:  Solving for p, Initial residual = 6.7296e-07, Final residual = 6.7296e-07, No Iterations 0
GAMG:  Solving for p, Initial residual = 6.7296e-07, Final residual = 6.7296e-07, No Iterations 0
time step continuity errors : sum local = 9.71151e-08, global = -1.45071e-19, cumulative = -4.65972e-16
ExecutionTime = 8.35 s  ClockTime = 8 s

Time = 729

smoothSolver:  Solving for Ux, Initial residual = 2.93736e-05, Final residual = 4.87818e-09, No Iterations 7
smoothSolver:  Solving for Uy, Initial residual = 4.07217e-05, Final residual = 6.75474e-09, No Iterations 7
GAMG:  Solving for p, Initial residual = 0.00010765, Final residual = 2.72832e-06, No Iterations 3
GAMG:  Solving for p, Initial residual = 2.72822e-06, Final residual = 6.69642e-07, No Iterations 3
GAMG:  Solving for p, Initial residual = 6.69643e-07, Final residual = 6.69643e-07, No Iterations 0
GAMG:  Solving for p, Initial residual = 6.69643e-07, Final residual = 6.69643e-07, No Iterations 0
time step continuity errors : sum local = 9.66385e-08, global = -5.59813e-18, cumulative = -4.7157e-16
ExecutionTime = 8.36 s  ClockTime = 9 s

Time = 730

smoothSolver:  Solving for Ux, Initial residual = 2.92263e-05, Final residual = 4.85371e-09, No Iterations 7
smoothSolver:  Solving for Uy, Initial residual = 4.05154e-05, Final residual = 6.72051e-09, No Iterations 7
GAMG:  Solving for p, Initial residual = 0.000107111, Final residual = 2.71472e-06, No Iterations 3
GAMG:  Solving for p, Initial residual = 2.71462e-06, Final residual = 9.97752e-07, No Iterations 2
GAMG:  Solving for p, Initial residual = 9.97752e-07, Final residual = 9.97752e-07, No Iterations 0
GAMG:  Solving for p, Initial residual = 9.97752e-07, Final residual = 9.97752e-07, No Iterations 0
time step continuity errors : sum local = 1.43721e-07, global = 1.4329e-17, cumulative = -4.57241e-16
ExecutionTime = 8.37 s  ClockTime = 9 s

Time = 731

smoothSolver:  Solving for Ux, Initial residual = 2.90815e-05, Final residual = 4.82967e-09, No Iterations 7
smoothSolver:  Solving for Uy, Initial residual = 4.0308e-05, Final residual = 6.68609e-09, No Iterations 7
GAMG:  Solving for p, Initial residual = 0.000106628, Final residual = 2.73972e-06, No Iterations 3
GAMG:  Solving for p, Initial residual = 2.73962e-06, Final residual = 7.03872e-07, No Iterations 3
GAMG:  Solving for p, Initial residual = 7.03872e-07, Final residual = 7.03872e-07, No Iterations 0
GAMG:  Solving for p, Initial residual = 7.03872e-07, Final residual = 7.03872e-07, No Iterations 0
time step continuity errors : sum local = 1.01459e-07, global = -4.55219e-18, cumulative = -4.61794e-16
ExecutionTime = 8.38 s  ClockTime = 9 s

Time = 732

smoothSolver:  Solving for Ux, Initial residual = 2.89349e-05, Final residual = 4.80532e-09, No Iterations 7
smoothSolver:  Solving for Uy, Initial residual = 4.01045e-05, Final residual = 6.65233e-09, No Iterations 7
GAMG:  Solving for p, Initial residual = 0.000106094, Final residual = 2.72577e-06, No Iterations 3
GAMG:  Solving for p, Initial residual = 2.72568e-06, Final residual = 6.97519e-07, No Iterations 3
GAMG:  Solving for p, Initial residual = 6.97519e-07, Final residual = 6.97519e-07, No Iterations 0
GAMG:  Solving for p, Initial residual = 6.97519e-07, Final residual = 6.97519e-07, No Iterations 0
time step continuity errors : sum local = 1.00577e-07, global = 1.92597e-17, cumulative = -4.42534e-16
ExecutionTime = 8.38 s  ClockTime = 9 s

Time = 733

smoothSolver:  Solving for Ux, Initial residual = 2.87889e-05, Final residual = 4.78107e-09, No Iterations 7
smoothSolver:  Solving for Uy, Initial residual = 3.99024e-05, Final residual = 6.61879e-09, No Iterations 7
GAMG:  Solving for p, Initial residual = 0.000105547, Final residual = 2.70234e-06, No Iterations 3
GAMG:  Solving for p, Initial residual = 2.70224e-06, Final residual = 6.85471e-07, No Iterations 3
GAMG:  Solving for p, Initial residual = 6.85471e-07, Final residual = 6.85471e-07, No Iterations 0
GAMG:  Solving for p, Initial residual = 6.85471e-07, Final residual = 6.85471e-07, No Iterations 0
time step continuity errors : sum local = 9.88761e-08, global = -1.69467e-18, cumulative = -4.44229e-16
ExecutionTime = 8.39 s  ClockTime = 9 s

Time = 734

smoothSolver:  Solving for Ux, Initial residual = 2.86438e-05, Final residual = 4.75697e-09, No Iterations 7
smoothSolver:  Solving for Uy, Initial residual = 3.97012e-05, Final residual = 6.58541e-09, No Iterations 7
GAMG:  Solving for p, Initial residual = 0.000104996, Final residual = 2.67466e-06, No Iterations 3
GAMG:  Solving for p, Initial residual = 2.67456e-06, Final residual = 9.9896e-07, No Iterations 2
GAMG:  Solving for p, Initial residual = 9.98961e-07, Final residual = 9.98961e-07, No Iterations 0
GAMG:  Solving for p, Initial residual = 9.98961e-07, Final residual = 9.98961e-07, No Iterations 0
time step continuity errors : sum local = 1.44002e-07, global = 6.75995e-18, cumulative = -4.37469e-16
ExecutionTime = 8.4 s  ClockTime = 9 s

Time = 735

smoothSolver:  Solving for Ux, Initial residual = 2.85015e-05, Final residual = 4.73334e-09, No Iterations 7
smoothSolver:  Solving for Uy, Initial residual = 3.94985e-05, Final residual = 6.55179e-09, No Iterations 7
GAMG:  Solving for p, Initial residual = 0.000104502, Final residual = 2.68484e-06, No Iterations 3
GAMG:  Solving for p, Initial residual = 2.68474e-06, Final residual = 6.94371e-07, No Iterations 3
GAMG:  Solving for p, Initial residual = 6.94372e-07, Final residual = 6.94372e-07, No Iterations 0
GAMG:  Solving for p, Initial residual = 6.94372e-07, Final residual = 6.94372e-07, No Iterations 0
time step continuity errors : sum local = 1.00087e-07, global = 9.69402e-18, cumulative = -4.27775e-16
ExecutionTime = 8.42 s  ClockTime = 9 s

Time = 736

smoothSolver:  Solving for Ux, Initial residual = 2.83577e-05, Final residual = 4.70946e-09, No Iterations 7
smoothSolver:  Solving for Uy, Initial residual = 3.92995e-05, Final residual = 6.51877e-09, No Iterations 7
GAMG:  Solving for p, Initial residual = 0.000103965, Final residual = 2.66231e-06, No Iterations 3
GAMG:  Solving for p, Initial residual = 2.66222e-06, Final residual = 6.82479e-07, No Iterations 3
GAMG:  Solving for p, Initial residual = 6.82479e-07, Final residual = 6.82479e-07, No Iterations 0
GAMG:  Solving for p, Initial residual = 6.82479e-07, Final residual = 6.82479e-07, No Iterations 0
time step continuity errors : sum local = 9.84067e-08, global = 3.69641e-18, cumulative = -4.24078e-16
ExecutionTime = 8.43 s  ClockTime = 9 s

Time = 737

smoothSolver:  Solving for Ux, Initial residual = 2.82148e-05, Final residual = 4.68572e-09, No Iterations 7
smoothSolver:  Solving for Uy, Initial residual = 3.91014e-05, Final residual = 6.4859e-09, No Iterations 7
GAMG:  Solving for p, Initial residual = 0.000103425, Final residual = 2.63513e-06, No Iterations 3
GAMG:  Solving for p, Initial residual = 2.63504e-06, Final residual = 9.90387e-07, No Iterations 2
GAMG:  Solving for p, Initial residual = 9.90388e-07, Final residual = 9.90388e-07, No Iterations 0
GAMG:  Solving for p, Initial residual = 9.90388e-07, Final residual = 9.90388e-07, No Iterations 0
time step continuity errors : sum local = 1.42836e-07, global = 1.05061e-17, cumulative = -4.13572e-16
ExecutionTime = 8.43 s  ClockTime = 9 s

Time = 738

smoothSolver:  Solving for Ux, Initial residual = 2.80747e-05, Final residual = 4.66246e-09, No Iterations 7
smoothSolver:  Solving for Uy, Initial residual = 3.89017e-05, Final residual = 6.45277e-09, No Iterations 7
GAMG:  Solving for p, Initial residual = 0.000102942, Final residual = 2.64527e-06, No Iterations 3
GAMG:  Solving for p, Initial residual = 2.64518e-06, Final residual = 6.8636e-07, No Iterations 3
GAMG:  Solving for p, Initial residual = 6.8636e-07, Final residual = 6.8636e-07, No Iterations 0
GAMG:  Solving for p, Initial residual = 6.8636e-07, Final residual = 6.8636e-07, No Iterations 0
time step continuity errors : sum local = 9.89103e-08, global = 2.64688e-17, cumulative = -3.87103e-16
ExecutionTime = 8.44 s  ClockTime = 9 s

Time = 739

smoothSolver:  Solving for Ux, Initial residual = 2.79331e-05, Final residual = 4.63894e-09, No Iterations 7
smoothSolver:  Solving for Uy, Initial residual = 3.87056e-05, Final residual = 6.42024e-09, No Iterations 7
GAMG:  Solving for p, Initial residual = 0.000102414, Final residual = 2.62325e-06, No Iterations 3
GAMG:  Solving for p, Initial residual = 2.62316e-06, Final residual = 9.97255e-07, No Iterations 2
GAMG:  Solving for p, Initial residual = 9.97255e-07, Final residual = 9.97255e-07, No Iterations 0
GAMG:  Solving for p, Initial residual = 9.97255e-07, Final residual = 9.97255e-07, No Iterations 0
time step continuity errors : sum local = 1.43962e-07, global = -1.69121e-17, cumulative = -4.04015e-16
ExecutionTime = 8.45 s  ClockTime = 9 s

Time = 740

smoothSolver:  Solving for Ux, Initial residual = 2.77942e-05, Final residual = 4.61587e-09, No Iterations 7
smoothSolver:  Solving for Uy, Initial residual = 3.85082e-05, Final residual = 6.38749e-09, No Iterations 7
GAMG:  Solving for p, Initial residual = 0.000101937, Final residual = 2.63241e-06, No Iterations 3
GAMG:  Solving for p, Initial residual = 2.63232e-06, Final residual = 6.90181e-07, No Iterations 3
GAMG:  Solving for p, Initial residual = 6.90181e-07, Final residual = 6.90181e-07, No Iterations 0
GAMG:  Solving for p, Initial residual = 6.90181e-07, Final residual = 6.90181e-07, No Iterations 0
time step continuity errors : sum local = 9.94079e-08, global = 2.95088e-19, cumulative = -4.0372e-16
ExecutionTime = 8.46 s  ClockTime = 9 s

Time = 741

smoothSolver:  Solving for Ux, Initial residual = 2.76537e-05, Final residual = 4.59254e-09, No Iterations 7
smoothSolver:  Solving for Uy, Initial residual = 3.83145e-05, Final residual = 6.35535e-09, No Iterations 7
GAMG:  Solving for p, Initial residual = 0.000101404, Final residual = 2.60667e-06, No Iterations 3
GAMG:  Solving for p, Initial residual = 2.60658e-06, Final residual = 9.9724e-07, No Iterations 2
GAMG:  Solving for p, Initial residual = 9.97241e-07, Final residual = 9.97241e-07, No Iterations 0
GAMG:  Solving for p, Initial residual = 9.97241e-07, Final residual = 9.97241e-07, No Iterations 0
time step continuity errors : sum local = 1.44055e-07, global = -1.12863e-17, cumulative = -4.15007e-16
ExecutionTime = 8.46 s  ClockTime = 9 s

Time = 742

smoothSolver:  Solving for Ux, Initial residual = 2.7516e-05, Final residual = 4.56966e-09, No Iterations 7
smoothSolver:  Solving for Uy, Initial residual = 3.81194e-05, Final residual = 6.32298e-09, No Iterations 7
GAMG:  Solving for p, Initial residual = 0.000100923, Final residual = 2.61027e-06, No Iterations 3
GAMG:  Solving for p, Initial residual = 2.61018e-06, Final residual = 6.87797e-07, No Iterations 3
GAMG:  Solving for p, Initial residual = 6.87798e-07, Final residual = 6.87798e-07, No Iterations 0
GAMG:  Solving for p, Initial residual = 6.87798e-07, Final residual = 6.87798e-07, No Iterations 0
time step continuity errors : sum local = 9.90388e-08, global = 5.86036e-18, cumulative = -4.09146e-16
ExecutionTime = 8.47 s  ClockTime = 9 s

Time = 743

smoothSolver:  Solving for Ux, Initial residual = 2.73768e-05, Final residual = 4.54653e-09, No Iterations 7
smoothSolver:  Solving for Uy, Initial residual = 3.79279e-05, Final residual = 6.29121e-09, No Iterations 7
GAMG:  Solving for p, Initial residual = 0.000100387, Final residual = 2.57901e-06, No Iterations 3
GAMG:  Solving for p, Initial residual = 2.57892e-06, Final residual = 9.87456e-07, No Iterations 2
GAMG:  Solving for p, Initial residual = 9.87456e-07, Final residual = 9.87456e-07, No Iterations 0
GAMG:  Solving for p, Initial residual = 9.87456e-07, Final residual = 9.87456e-07, No Iterations 0
time step continuity errors : sum local = 1.42659e-07, global = 2.9861e-18, cumulative = -4.0616e-16
ExecutionTime = 8.48 s  ClockTime = 9 s

Time = 744

smoothSolver:  Solving for Ux, Initial residual = 2.72403e-05, Final residual = 4.52388e-09, No Iterations 7
smoothSolver:  Solving for Uy, Initial residual = 3.77349e-05, Final residual = 6.2592e-09, No Iterations 7
GAMG:  Solving for p, Initial residual = 9.9904e-05, Final residual = 2.58031e-06, No Iterations 3
GAMG:  Solving for p, Initial residual = 2.58022e-06, Final residual = 9.96658e-07, No Iterations 2
GAMG:  Solving for p, Initial residual = 9.96658e-07, Final residual = 9.96658e-07, No Iterations 0
GAMG:  Solving for p, Initial residual = 9.96658e-07, Final residual = 9.96658e-07, No Iterations 0
time step continuity errors : sum local = 1.44191e-07, global = 1.16972e-17, cumulative = -3.94463e-16
ExecutionTime = 8.49 s  ClockTime = 9 s


SIMPLE solution converged in 744 iterations

End

